<?xml version='1.0' encoding='ISO-8859-1'?>
<febio_spec version="2.5">
	<Module type="solid" />
	<Globals>
		<Constants>
			<T>0</T>
			<R>0</R>
			<Fc>0</Fc>
		</Constants>
	</Globals>
	<Material>
		<material id="1" name="SMGNN_BENCHMARK_MATERIAL" type="neo-Hookean">
			<density>1</density>
			<E>E_ELEM_DATA</E>
			<v>v_ELEM_DATA</v>
		</material>
	</Material>
	<Geometry>
		<Nodes name="SMGNN_BENCHMARK">
			<node id="1">0.0,1.2816991424188018,0.0</node>
			<node id="2">3.3452564384788275,1.2816991424188018,0.0</node>
			<node id="3">3.3452564384788275,0.0,0.0</node>
			<node id="4">0.0,0.0,0.0</node>
			<node id="5">0.069692842468309,1.2816991424188018,0.0</node>
			<node id="6">0.13938568493661796,1.2816991424188018,0.0</node>
			<node id="7">0.20907852740492694,1.2816991424188018,0.0</node>
			<node id="8">0.2787713698732359,1.2816991424188018,0.0</node>
			<node id="9">0.34846421234154495,1.2816991424188018,0.0</node>
			<node id="10">0.418157054809854,1.2816991424188018,0.0</node>
			<node id="11">0.4878498972781631,1.2816991424188018,0.0</node>
			<node id="12">0.5575427397464721,1.2816991424188018,0.0</node>
			<node id="13">0.627235582214781,1.2816991424188018,0.0</node>
			<node id="14">0.6969284246830899,1.2816991424188018,0.0</node>
			<node id="15">0.7666212671513988,1.2816991424188018,0.0</node>
			<node id="16">0.8363141096197076,1.2816991424188018,0.0</node>
			<node id="17">0.9060069520880165,1.2816991424188018,0.0</node>
			<node id="18">0.9756997945563255,1.2816991424188018,0.0</node>
			<node id="19">1.0453926370246343,1.2816991424188018,0.0</node>
			<node id="20">1.1150854794929432,1.2816991424188018,0.0</node>
<!-- ... 1563 like lines cut -->
		</Nodes>
		<Elements type="tri3" mat="1" name="SMGNN_BENCHMARK">
			<elem id="1">157,1039,898</elem>
			<elem id="2">935,1027,920</elem>
			<elem id="3">859,914,620</elem>
			<elem id="4">858,959,181</elem>
			<elem id="5">181,960,858</elem>
			<elem id="6">467,1062,469</elem>
			<elem id="7">1343,1480,535</elem>
			<elem id="8">620,913,859</elem>
			<elem id="9">177,1027,935</elem>
			<elem id="10">580,1064,500</elem>
			<elem id="11">307,1236,884</elem>
			<elem id="12">526,1141,968</elem>
			<elem id="13">540,1262,956</elem>
			<elem id="14">967,1480,1343</elem>
			<elem id="15">956,1227,540</elem>
			<elem id="16">159,897,896</elem>
			<elem id="17">861,1471,732</elem>
			<elem id="18">884,1567,307</elem>
			<elem id="19">77,1270,865</elem>
			<elem id="20">535,1407,1343</elem>
<!-- ... 3010 like lines cut -->
		</Elements>
		<NodeSet name="TOP_NODES">
			<node id="1" />
			<node id="2" />
			<node id="5" />
			<node id="6" />
			<node id="7" />
			<node id="8" />
			<node id="9" />
			<node id="10" />
			<node id="11" />
			<node id="12" />
			<node id="13" />
			<node id="14" />
			<node id="15" />
			<node id="16" />
			<node id="17" />
			<node id="18" />
			<node id="19" />
			<node id="20" />
			<node id="21" />
			<node id="22" />
<!-- ... 29 like lines cut -->
		</NodeSet>
		<NodeSet name="BOTTOM_NODES">
			<node id="3" />
			<node id="4" />
			<node id="70" />
			<node id="71" />
			<node id="72" />
			<node id="73" />
			<node id="74" />
			<node id="75" />
			<node id="76" />
			<node id="77" />
			<node id="78" />
			<node id="79" />
			<node id="80" />
			<node id="81" />
			<node id="82" />
			<node id="83" />
			<node id="84" />
			<node id="85" />
			<node id="86" />
			<node id="87" />
<!-- ... 29 like lines cut -->
		</NodeSet>
		<NodeSet name="LEFT_NODES">
			<node id="1" />
			<node id="4" />
			<node id="117" />
			<node id="118" />
			<node id="119" />
			<node id="120" />
			<node id="121" />
			<node id="122" />
			<node id="123" />
			<node id="124" />
			<node id="125" />
			<node id="126" />
			<node id="127" />
			<node id="128" />
			<node id="129" />
			<node id="130" />
			<node id="131" />
			<node id="132" />
			<node id="133" />
			<node id="134" />
		</NodeSet>
		<NodeSet name="RIGHT_NODES">
			<node id="2" />
			<node id="3" />
			<node id="52" />
			<node id="53" />
			<node id="54" />
			<node id="55" />
			<node id="56" />
			<node id="57" />
			<node id="58" />
			<node id="59" />
			<node id="60" />
			<node id="61" />
			<node id="62" />
			<node id="63" />
			<node id="64" />
			<node id="65" />
			<node id="66" />
			<node id="67" />
			<node id="68" />
			<node id="69" />
		</NodeSet>
		<NodeSet name="ALL_NODES">
			<node id="1" />
			<node id="2" />
			<node id="3" />
			<node id="4" />
			<node id="5" />
			<node id="6" />
			<node id="7" />
			<node id="8" />
			<node id="9" />
			<node id="10" />
			<node id="11" />
			<node id="12" />
			<node id="13" />
			<node id="14" />
			<node id="15" />
			<node id="16" />
			<node id="17" />
			<node id="18" />
			<node id="19" />
			<node id="20" />
<!-- ... 1563 like lines cut -->
		</NodeSet>
	</Geometry>
	<MeshData>
		<ElementData var="shell thickness" name="shell_thickness_SMGNN_BENCHMARK" elem_set="SMGNN_BENCHMARK">
			<elem lid="1">0.01,0.01,0.01</elem>
			<elem lid="2">0.01,0.01,0.01</elem>
			<elem lid="3">0.01,0.01,0.01</elem>
			<elem lid="4">0.01,0.01,0.01</elem>
			<elem lid="5">0.01,0.01,0.01</elem>
			<elem lid="6">0.01,0.01,0.01</elem>
			<elem lid="7">0.01,0.01,0.01</elem>
			<elem lid="8">0.01,0.01,0.01</elem>
			<elem lid="9">0.01,0.01,0.01</elem>
			<elem lid="10">0.01,0.01,0.01</elem>
			<elem lid="11">0.01,0.01,0.01</elem>
			<elem lid="12">0.01,0.01,0.01</elem>
			<elem lid="13">0.01,0.01,0.01</elem>
			<elem lid="14">0.01,0.01,0.01</elem>
			<elem lid="15">0.01,0.01,0.01</elem>
			<elem lid="16">0.01,0.01,0.01</elem>
			<elem lid="17">0.01,0.01,0.01</elem>
			<elem lid="18">0.01,0.01,0.01</elem>
			<elem lid="19">0.01,0.01,0.01</elem>
			<elem lid="20">0.01,0.01,0.01</elem>
<!-- ... 3010 like lines cut -->
		</ElementData>
		<NodeData name="RIGHT_NODES_X" node_set="RIGHT_NODES">
			<node lid="1">4.2386276e-07</node>
			<node lid="2">6.714411e-11</node>
			<node lid="3">6.355533e-07</node>
			<node lid="4">8.6558094e-07</node>
			<node lid="5">1.0707612e-06</node>
			<node lid="6">1.2031131e-06</node>
			<node lid="7">1.2278618e-06</node>
			<node lid="8">1.1382082e-06</node>
			<node lid="9">9.583473e-07</node>
			<node lid="10">7.3291454e-07</node>
			<node lid="11">5.0911115e-07</node>
			<node lid="12">3.2121903e-07</node>
			<node lid="13">1.8408517e-07</node>
			<node lid="14">9.5822074e-08</node>
			<node lid="15">4.530451e-08</node>
			<node lid="16">1.9455669e-08</node>
			<node lid="17">7.588928e-09</node>
			<node lid="18">2.6887075e-09</node>
			<node lid="19">8.6523927e-10</node>
			<node lid="20">2.5290478e-10</node>
		</NodeData>
		<NodeData name="RIGHT_NODES_Y" node_set="RIGHT_NODES">
			<node lid="1">-1.443717e-06</node>
			<node lid="2">-2.2869925e-10</node>
			<node lid="3">-2.1647552e-06</node>
			<node lid="4">-2.9482512e-06</node>
			<node lid="5">-3.6471147e-06</node>
			<node lid="6">-4.097918e-06</node>
			<node lid="7">-4.1822145e-06</node>
			<node lid="8">-3.8768458e-06</node>
			<node lid="9">-3.2642222e-06</node>
			<node lid="10">-2.4963767e-06</node>
			<node lid="11">-1.7340811e-06</node>
			<node lid="12">-1.0941027e-06</node>
			<node lid="13">-6.270116e-07</node>
			<node lid="14">-3.2637914e-07</node>
			<node lid="15">-1.5431148e-07</node>
			<node lid="16">-6.6267866e-08</node>
			<node lid="17">-2.5848612e-08</node>
			<node lid="18">-9.157994e-09</node>
			<node lid="19">-2.9470875e-09</node>
			<node lid="20">-8.614178e-10</node>
		</NodeData>
		<ElementData name="v_ELEM_DATA" elem_set="SMGNN_BENCHMARK" datatype="scalar">
			<elem lid="1">0.3224215028807521</elem>
			<elem lid="2">0.3224215028807521</elem>
			<elem lid="3">0.3224215028807521</elem>
			<elem lid="4">0.3224215028807521</elem>
			<elem lid="5">0.3224215028807521</elem>
			<elem lid="6">0.3224215028807521</elem>
			<elem lid="7">0.3224215028807521</elem>
			<elem lid="8">0.3224215028807521</elem>
			<elem lid="9">0.3224215028807521</elem>
			<elem lid="10">0.3224215028807521</elem>
			<elem lid="11">0.3224215028807521</elem>
			<elem lid="12">0.3224215028807521</elem>
			<elem lid="13">0.3224215028807521</elem>
			<elem lid="14">0.3224215028807521</elem>
			<elem lid="15">0.3224215028807521</elem>
			<elem lid="16">0.3224215028807521</elem>
			<elem lid="17">0.3224215028807521</elem>
			<elem lid="18">0.3224215028807521</elem>
			<elem lid="19">0.3224215028807521</elem>
			<elem lid="20">0.3224215028807521</elem>
<!-- ... 3010 like lines cut -->
		</ElementData>
		<ElementData name="E_ELEM_DATA" elem_set="SMGNN_BENCHMARK" datatype="scalar">
			<elem lid="1">0.23053163625299933</elem>
			<elem lid="2">0.23053163625299933</elem>
			<elem lid="3">0.23053163625299933</elem>
			<elem lid="4">0.23053163625299933</elem>
			<elem lid="5">0.23053163625299933</elem>
			<elem lid="6">0.23053163625299933</elem>
			<elem lid="7">0.23053163625299933</elem>
			<elem lid="8">0.23053163625299933</elem>
			<elem lid="9">0.23053163625299933</elem>
			<elem lid="10">0.23053163625299933</elem>
			<elem lid="11">0.23053163625299933</elem>
			<elem lid="12">0.23053163625299933</elem>
			<elem lid="13">0.23053163625299933</elem>
			<elem lid="14">0.23053163625299933</elem>
			<elem lid="15">0.23053163625299933</elem>
			<elem lid="16">0.23053163625299933</elem>
			<elem lid="17">0.23053163625299933</elem>
			<elem lid="18">0.23053163625299933</elem>
			<elem lid="19">0.23053163625299933</elem>
			<elem lid="20">0.23053163625299933</elem>
<!-- ... 3010 like lines cut -->
		</ElementData>
	</MeshData>
	<Boundary>
		<fix bc="x,y,z" node_set="LEFT_NODES" />
		<fix bc="sx,sy" node_set="LEFT_NODES" />
		<fix bc="z" node_set="ALL_NODES" />
	</Boundary>
	<Loads>
		<nodal_load bc="x" node_set="RIGHT_NODES">
			<scale lc="1">1*RIGHT_NODES_X</scale>
		</nodal_load>
		<nodal_load bc="y" node_set="RIGHT_NODES">
			<scale lc="1">1*RIGHT_NODES_Y</scale>
		</nodal_load>
	</Loads>
	<LoadData>
		<loadcurve id="1" type="smooth">
			<point>0,0</point>
			<point>1,1</point>
		</loadcurve>
	</LoadData>
	<Output>
		<plotfile type="febio">
			<var type="displacement" />
			<var type="element strain energy" />
			<var type="Lagrange strain" />
			<var type="stress" />
		</plotfile>
	</Output>
	<Step name="Step1">
		<Control>
			<time_steps>10</time_steps>
			<step_size>0.1</step_size>
			<max_refs>15</max_refs>
			<max_ups>10</max_ups>
			<diverge_reform>1</diverge_reform>
			<reform_each_time_step>1</reform_each_time_step>
			<dtol>0.001</dtol>
			<etol>0.01</etol>
			<rtol>0</rtol>
			<lstol>0.75</lstol>
			<min_residual>1e-20</min_residual>
			<qnmethod>0</qnmethod>
			<rhoi>0</rhoi>
			<time_stepper>
				<dtmin>0.01</dtmin>
				<dtmax>0.1</dtmax>
				<max_retries>5</max_retries>
				<opt_iter>10</opt_iter>
			</time_stepper>
			<analysis type="static" />
		</Control>
	</Step>
</febio_spec>