<?xml version='1.0' encoding='ISO-8859-1'?>
<febio_spec version="2.5">
	<Module type="solid" />
	<Globals>
		<Constants>
			<T>0</T>
			<R>0</R>
			<Fc>0</Fc>
		</Constants>
	</Globals>
	<Material>
		<material id="1" name="SMGNN_BENCHMARK_MATERIAL" type="Mooney-Rivlin">
			<density>1</density>
			<c1>0.5850093990564347</c1>
			<c2>0.5551459588110447</c2>
			<k>10.0</k>
		</material>
	</Material>
	<Geometry>
		<Nodes name="SMGNN_BENCHMARK">
			<node id="1">0.0,1.1655797227285802,0.0</node>
			<node id="2">2.830367013812065,1.1655797227285802,0.0</node>
			<node id="3">0.0,0.0,0.0</node>
			<node id="4">2.830367013812065,0.0,0.0</node>
			<node id="5">2.1993573921306346,0.3558593030631217,0.0</node>
			<node id="6">2.232749036035767,0.4058334297564165,0.0</node>
			<node id="7">2.14938326543734,0.32246765915798953,0.0</node>
			<node id="8">2.09043476372835,0.3107420731295706,0.0</node>
			<node id="9">2.03148626201936,0.32246765915798953,0.0</node>
			<node id="10">1.9815121353260654,0.3558593030631217,0.0</node>
			<node id="11">1.9481204914209331,0.40583342975641645,0.0</node>
			<node id="12">1.9363949053925142,0.4647819314654063,0.0</node>
			<node id="13">1.9481204914209331,0.5237304331743962,0.0</node>
			<node id="14">1.9815121353260654,0.5737045598676909,0.0</node>
			<node id="15">2.03148626201936,0.607096203772823,0.0</node>
			<node id="16">2.09043476372835,0.618821789801242,0.0</node>
			<node id="17">2.14938326543734,0.607096203772823,0.0</node>
			<node id="18">2.1993573921306346,0.5737045598676909,0.0</node>
			<node id="19">2.232749036035767,0.5237304331743962,0.0</node>
			<node id="20">2.244474622064186,0.4647819314654063,0.0</node>
<!-- ... 1686 like lines cut -->
		</Nodes>
		<Elements type="tri3" mat="1" name="SMGNN_BENCHMARK">
			<elem id="1">1233,1537,1495</elem>
			<elem id="2">16,1420,224</elem>
			<elem id="3">784,1426,1106</elem>
			<elem id="4">652,956,733</elem>
			<elem id="5">900,1532,974</elem>
			<elem id="6">464,1500,1293</elem>
			<elem id="7">1077,1570,333</elem>
			<elem id="8">1061,1380,940</elem>
			<elem id="9">1135,1304,271</elem>
			<elem id="10">272,1455,1092</elem>
			<elem id="11">909,1252,355</elem>
			<elem id="12">271,1305,1135</elem>
			<elem id="13">1335,1440,904</elem>
			<elem id="14">872,1246,263</elem>
			<elem id="15">355,1261,909</elem>
			<elem id="16">719,1186,1185</elem>
			<elem id="17">659,956,652</elem>
			<elem id="18">961,1141,297</elem>
			<elem id="19">556,1347,1059</elem>
			<elem id="20">758,1285,1072</elem>
<!-- ... 3136 like lines cut -->
		</Elements>
		<NodeSet name="TOP_NODES">
			<node id="1" />
			<node id="2" />
			<node id="53" />
			<node id="54" />
			<node id="55" />
			<node id="56" />
			<node id="57" />
			<node id="58" />
			<node id="59" />
			<node id="60" />
			<node id="61" />
			<node id="62" />
			<node id="63" />
			<node id="64" />
			<node id="65" />
			<node id="66" />
			<node id="67" />
			<node id="68" />
			<node id="69" />
			<node id="70" />
<!-- ... 39 like lines cut -->
		</NodeSet>
		<NodeSet name="BOTTOM_NODES">
			<node id="3" />
			<node id="4" />
			<node id="156" />
			<node id="157" />
			<node id="158" />
			<node id="159" />
			<node id="160" />
			<node id="161" />
			<node id="162" />
			<node id="163" />
			<node id="164" />
			<node id="165" />
			<node id="166" />
			<node id="167" />
			<node id="168" />
			<node id="169" />
			<node id="170" />
			<node id="171" />
			<node id="172" />
			<node id="173" />
<!-- ... 39 like lines cut -->
		</NodeSet>
		<NodeSet name="LEFT_NODES">
			<node id="1" />
			<node id="3" />
			<node id="110" />
			<node id="111" />
			<node id="112" />
			<node id="113" />
			<node id="114" />
			<node id="115" />
			<node id="116" />
			<node id="117" />
			<node id="118" />
			<node id="119" />
			<node id="120" />
			<node id="121" />
			<node id="122" />
			<node id="123" />
			<node id="124" />
			<node id="125" />
			<node id="126" />
			<node id="127" />
<!-- ... 5 like lines cut -->
		</NodeSet>
		<NodeSet name="RIGHT_NODES">
			<node id="2" />
			<node id="4" />
			<node id="133" />
			<node id="134" />
			<node id="135" />
			<node id="136" />
			<node id="137" />
			<node id="138" />
			<node id="139" />
			<node id="140" />
			<node id="141" />
			<node id="142" />
			<node id="143" />
			<node id="144" />
			<node id="145" />
			<node id="146" />
			<node id="147" />
			<node id="148" />
			<node id="149" />
			<node id="150" />
<!-- ... 5 like lines cut -->
		</NodeSet>
		<NodeSet name="ALL_NODES">
			<node id="1" />
			<node id="2" />
			<node id="3" />
			<node id="4" />
			<node id="5" />
			<node id="6" />
			<node id="7" />
			<node id="8" />
			<node id="9" />
			<node id="10" />
			<node id="11" />
			<node id="12" />
			<node id="13" />
			<node id="14" />
			<node id="15" />
			<node id="16" />
			<node id="17" />
			<node id="18" />
			<node id="19" />
			<node id="20" />
<!-- ... 1686 like lines cut -->
		</NodeSet>
	</Geometry>
	<MeshData>
		<ElementData var="shell thickness" name="shell_thickness_SMGNN_BENCHMARK" elem_set="SMGNN_BENCHMARK">
			<elem lid="1">0.01,0.01,0.01</elem>
			<elem lid="2">0.01,0.01,0.01</elem>
			<elem lid="3">0.01,0.01,0.01</elem>
			<elem lid="4">0.01,0.01,0.01</elem>
			<elem lid="5">0.01,0.01,0.01</elem>
			<elem lid="6">0.01,0.01,0.01</elem>
			<elem lid="7">0.01,0.01,0.01</elem>
			<elem lid="8">0.01,0.01,0.01</elem>
			<elem lid="9">0.01,0.01,0.01</elem>
			<elem lid="10">0.01,0.01,0.01</elem>
			<elem lid="11">0.01,0.01,0.01</elem>
			<elem lid="12">0.01,0.01,0.01</elem>
			<elem lid="13">0.01,0.01,0.01</elem>
			<elem lid="14">0.01,0.01,0.01</elem>
			<elem lid="15">0.01,0.01,0.01</elem>
			<elem lid="16">0.01,0.01,0.01</elem>
			<elem lid="17">0.01,0.01,0.01</elem>
			<elem lid="18">0.01,0.01,0.01</elem>
			<elem lid="19">0.01,0.01,0.01</elem>
			<elem lid="20">0.01,0.01,0.01</elem>
<!-- ... 3136 like lines cut -->
		</ElementData>
		<NodeData name="RIGHT_NODES_X" node_set="RIGHT_NODES">
			<node lid="1">8.761707727726808e-05</node>
			<node lid="2">8.761707727726808e-05</node>
			<node lid="3">8.761707727726808e-05</node>
			<node lid="4">8.761707727726808e-05</node>
			<node lid="5">8.761707727726808e-05</node>
			<node lid="6">8.761707727726808e-05</node>
			<node lid="7">8.761707727726808e-05</node>
			<node lid="8">8.761707727726808e-05</node>
			<node lid="9">8.761707727726808e-05</node>
			<node lid="10">8.761707727726808e-05</node>
			<node lid="11">8.761707727726808e-05</node>
			<node lid="12">8.761707727726808e-05</node>
			<node lid="13">8.761707727726808e-05</node>
			<node lid="14">8.761707727726808e-05</node>
			<node lid="15">8.761707727726808e-05</node>
			<node lid="16">8.761707727726808e-05</node>
			<node lid="17">8.761707727726808e-05</node>
			<node lid="18">8.761707727726808e-05</node>
			<node lid="19">8.761707727726808e-05</node>
			<node lid="20">8.761707727726808e-05</node>
<!-- ... 5 like lines cut -->
		</NodeData>
		<NodeData name="RIGHT_NODES_Y" node_set="RIGHT_NODES">
			<node lid="1">7.788243390121984e-05</node>
			<node lid="2">7.788243390121984e-05</node>
			<node lid="3">7.788243390121984e-05</node>
			<node lid="4">7.788243390121984e-05</node>
			<node lid="5">7.788243390121984e-05</node>
			<node lid="6">7.788243390121984e-05</node>
			<node lid="7">7.788243390121984e-05</node>
			<node lid="8">7.788243390121984e-05</node>
			<node lid="9">7.788243390121984e-05</node>
			<node lid="10">7.788243390121984e-05</node>
			<node lid="11">7.788243390121984e-05</node>
			<node lid="12">7.788243390121984e-05</node>
			<node lid="13">7.788243390121984e-05</node>
			<node lid="14">7.788243390121984e-05</node>
			<node lid="15">7.788243390121984e-05</node>
			<node lid="16">7.788243390121984e-05</node>
			<node lid="17">7.788243390121984e-05</node>
			<node lid="18">7.788243390121984e-05</node>
			<node lid="19">7.788243390121984e-05</node>
			<node lid="20">7.788243390121984e-05</node>
<!-- ... 5 like lines cut -->
		</NodeData>
	</MeshData>
	<Boundary>
		<fix bc="x,y,z" node_set="LEFT_NODES" />
		<fix bc="sx,sy" node_set="LEFT_NODES" />
		<fix bc="z" node_set="ALL_NODES" />
	</Boundary>
	<Loads>
		<nodal_load bc="x" node_set="RIGHT_NODES">
			<scale lc="1">1*RIGHT_NODES_X</scale>
		</nodal_load>
		<nodal_load bc="y" node_set="RIGHT_NODES">
			<scale lc="1">1*RIGHT_NODES_Y</scale>
		</nodal_load>
	</Loads>
	<LoadData>
		<loadcurve id="1" type="smooth">
			<point>0,0</point>
			<point>1,1</point>
		</loadcurve>
	</LoadData>
	<Output>
		<plotfile type="febio">
			<var type="displacement" />
			<var type="element strain energy" />
			<var type="Lagrange strain" />
			<var type="stress" />
		</plotfile>
	</Output>
	<Step name="Step1">
		<Control>
			<time_steps>10</time_steps>
			<step_size>0.1</step_size>
			<max_refs>15</max_refs>
			<max_ups>10</max_ups>
			<diverge_reform>1</diverge_reform>
			<reform_each_time_step>1</reform_each_time_step>
			<dtol>0.001</dtol>
			<etol>0.01</etol>
			<rtol>0</rtol>
			<lstol>0.75</lstol>
			<min_residual>1e-20</min_residual>
			<qnmethod>0</qnmethod>
			<rhoi>0</rhoi>
			<time_stepper>
				<dtmin>0.01</dtmin>
				<dtmax>0.1</dtmax>
				<max_retries>5</max_retries>
				<opt_iter>10</opt_iter>
			</time_stepper>
			<analysis type="static" />
		</Control>
	</Step>
</febio_spec>