<?xml version='1.0' encoding='ISO-8859-1'?>
<febio_spec version="2.5">
	<Module type="solid" />
	<Control>
		<time_steps>10</time_steps>
		<step_size>0.1</step_size>
		<max_refs>15</max_refs>
		<max_ups>10</max_ups>
		<diverge_reform>1</diverge_reform>
		<reform_each_time_step>1</reform_each_time_step>
		<dtol>0.001</dtol>
		<etol>0.01</etol>
		<rtol>0</rtol>
		<lstol>0.75</lstol>
		<min_residual>1e-20</min_residual>
		<qnmethod>0</qnmethod>
		<rhoi>0</rhoi>
		<time_stepper>
			<dtmin>0.01</dtmin>
			<dtmax>0.1</dtmax>
			<max_retries>5</max_retries>
			<opt_iter>10</opt_iter>
		</time_stepper>
		<analysis type="static" />
	</Control>
	<Material>
		<material id="1" type="isotropic elastic" name="Material 1">
			<E>150</E>
			<v>0.25</v>
			<density>1</density>
		</material>
	</Material>
	<Globals>
		<Constants>
			<T>0</T>
			<R>0</R>
			<Fc>0</Fc>
		</Constants>
	</Globals>
	<Geometry>
		<Nodes name="SMGNN_BENCHMARK">
			<node id="1">3.0,0.927691,0.927691</node>
			<node id="2">3.0,0.922359,0.861111</node>
			<node id="3">3.0,0.861111,0.896128</node>
			<node id="4">2.23636,0.0,0.0</node>
			<node id="5">2.29091,0.0,0.0</node>
			<node id="6">2.26364,0.10395,0.0</node>
			<node id="7">2.20909,0.0,0.081897</node>
			<node id="8">0.621571,0.0,0.716444</node>
			<node id="9">0.681818,0.0,0.74543</node>
			<node id="10">0.67502,0.0,0.682456</node>
			<node id="11">0.681818,0.0848986,0.0</node>
			<node id="12">0.627273,0.0693623,0.0</node>
			<node id="13">0.653389,0.169734,0.0</node>
			<node id="14">0.0,0.222222,0.0</node>
			<node id="15">0.0,0.277778,0.0</node>
			<node id="16">0.0,0.25,0.0653612</node>
			<node id="17">0.108978,0.25,0.0</node>
			<node id="18">1.33636,1.0,0.0729279</node>
			<node id="19">1.28182,1.0,0.100291</node>
			<node id="20">1.30909,1.0,0.0</node>
<!-- ... 4836 like lines cut -->
		</Nodes>
		<Elements type="tet4" mat="1" name="SMGNN_BENCHMARK">
			<elem id="1">2949,3792,4141,4234</elem>
			<elem id="2">2461,662,664,3337</elem>
			<elem id="3">31,30,2591,3694</elem>
			<elem id="4">523,326,328,3186</elem>
			<elem id="5">3278,2978,3334,3443</elem>
			<elem id="6">2425,667,2889,3476</elem>
			<elem id="7">3175,1741,3601,3633</elem>
			<elem id="8">1332,4145,3215,1902</elem>
			<elem id="9">3521,3060,3666,3999</elem>
			<elem id="10">3792,3044,4141,4234</elem>
			<elem id="11">1546,3251,3585,4298</elem>
			<elem id="12">144,143,1791,4174</elem>
			<elem id="13">2094,2558,2459,3079</elem>
			<elem id="14">3261,4590,785,3279</elem>
			<elem id="15">1055,806,3803,4437</elem>
			<elem id="16">4127,3035,4259,4571</elem>
			<elem id="17">3874,4496,3365,4296</elem>
			<elem id="18">1585,977,2990,3745</elem>
			<elem id="19">1269,3206,3370,3569</elem>
			<elem id="20">3372,3050,3892,4796</elem>
<!-- ... 20728 like lines cut -->
		</Elements>
		<NodeSet name="YN_NODES">
			<node id="4" />
			<node id="5" />
			<node id="7" />
			<node id="8" />
			<node id="9" />
			<node id="10" />
			<node id="27" />
			<node id="28" />
			<node id="29" />
			<node id="33" />
			<node id="34" />
			<node id="35" />
			<node id="51" />
			<node id="52" />
			<node id="53" />
			<node id="69" />
			<node id="70" />
			<node id="71" />
			<node id="76" />
			<node id="82" />
<!-- ... 622 like lines cut -->
		</NodeSet>
		<NodeSet name="XN_NODES">
			<node id="14" />
			<node id="15" />
			<node id="16" />
			<node id="41" />
			<node id="57" />
			<node id="58" />
			<node id="59" />
			<node id="94" />
			<node id="127" />
			<node id="128" />
			<node id="129" />
			<node id="163" />
			<node id="164" />
			<node id="165" />
			<node id="169" />
			<node id="170" />
			<node id="171" />
			<node id="179" />
			<node id="180" />
			<node id="181" />
<!-- ... 234 like lines cut -->
		</NodeSet>
		<NodeSet name="XP_NODES">
			<node id="1" />
			<node id="2" />
			<node id="3" />
			<node id="42" />
			<node id="43" />
			<node id="44" />
			<node id="63" />
			<node id="64" />
			<node id="65" />
			<node id="68" />
			<node id="79" />
			<node id="80" />
			<node id="81" />
			<node id="88" />
			<node id="89" />
			<node id="90" />
			<node id="121" />
			<node id="122" />
			<node id="123" />
			<node id="136" />
<!-- ... 233 like lines cut -->
		</NodeSet>
		<NodeSet name="ZN_NODES">
			<node id="4" />
			<node id="5" />
			<node id="6" />
			<node id="11" />
			<node id="12" />
			<node id="13" />
			<node id="14" />
			<node id="15" />
			<node id="17" />
			<node id="20" />
			<node id="39" />
			<node id="40" />
			<node id="41" />
			<node id="42" />
			<node id="43" />
			<node id="60" />
			<node id="61" />
			<node id="62" />
			<node id="72" />
			<node id="73" />
<!-- ... 624 like lines cut -->
		</NodeSet>
		<NodeSet name="ALL_NODES">
			<node id="1" />
			<node id="2" />
			<node id="3" />
			<node id="4" />
			<node id="5" />
			<node id="6" />
			<node id="7" />
			<node id="8" />
			<node id="9" />
			<node id="10" />
			<node id="11" />
			<node id="12" />
			<node id="13" />
			<node id="14" />
			<node id="15" />
			<node id="16" />
			<node id="17" />
			<node id="18" />
			<node id="19" />
			<node id="20" />
<!-- ... 4836 like lines cut -->
		</NodeSet>
		<NodeSet name="ZP_NODES">
			<node id="28" />
			<node id="36" />
			<node id="37" />
			<node id="38" />
			<node id="48" />
			<node id="49" />
			<node id="50" />
			<node id="54" />
			<node id="55" />
			<node id="56" />
			<node id="66" />
			<node id="76" />
			<node id="77" />
			<node id="78" />
			<node id="82" />
			<node id="83" />
			<node id="84" />
			<node id="85" />
			<node id="86" />
			<node id="87" />
<!-- ... 656 like lines cut -->
		</NodeSet>
		<NodeSet name="YP_NODES">
			<node id="18" />
			<node id="19" />
			<node id="20" />
			<node id="21" />
			<node id="22" />
			<node id="23" />
			<node id="24" />
			<node id="25" />
			<node id="26" />
			<node id="30" />
			<node id="31" />
			<node id="32" />
			<node id="45" />
			<node id="46" />
			<node id="47" />
			<node id="50" />
			<node id="66" />
			<node id="67" />
			<node id="68" />
			<node id="84" />
<!-- ... 646 like lines cut -->
		</NodeSet>
		<NodeSet name="ALL_NODES">
			<node id="1" />
			<node id="2" />
			<node id="3" />
			<node id="4" />
			<node id="5" />
			<node id="6" />
			<node id="7" />
			<node id="8" />
			<node id="9" />
			<node id="10" />
			<node id="11" />
			<node id="12" />
			<node id="13" />
			<node id="14" />
			<node id="15" />
			<node id="16" />
			<node id="17" />
			<node id="18" />
			<node id="19" />
			<node id="20" />
<!-- ... 4836 like lines cut -->
		</NodeSet>
		<Surface name="YP_FACES">
			<tri3 id="1">18,2513,2495</tri3>
			<tri3 id="2">18,2495,20</tri3>
			<tri3 id="3">18,2243,1091</tri3>
			<tri3 id="4">18,19,2243</tri3>
			<tri3 id="5">18,1091,2513</tri3>
			<tri3 id="6">18,20,19</tri3>
			<tri3 id="7">19,20,2613</tri3>
			<tri3 id="8">19,2613,1453</tri3>
			<tri3 id="9">19,1453,1454</tri3>
			<tri3 id="10">19,1454,2639</tri3>
			<tri3 id="11">19,2639,2243</tri3>
			<tri3 id="12">21,22,905</tri3>
			<tri3 id="13">21,23,22</tri3>
			<tri3 id="14">21,1193,23</tri3>
			<tri3 id="15">21,906,1193</tri3>
			<tri3 id="16">21,905,906</tri3>
			<tri3 id="17">22,1061,708</tri3>
			<tri3 id="18">22,541,1424</tri3>
			<tri3 id="19">22,23,1061</tri3>
			<tri3 id="20">22,1424,905</tri3>
<!-- ... 1164 like lines cut -->
		</Surface>
		<Surface name="YN_FACES">
			<tri3 id="1185">4,7,2148</tri3>
			<tri3 id="1186">4,5,7</tri3>
			<tri3 id="1187">5,1691,1910</tri3>
			<tri3 id="1188">5,1910,7</tri3>
			<tri3 id="1189">7,2087,2088</tri3>
			<tri3 id="1190">7,1524,2087</tri3>
			<tri3 id="1191">7,1523,1524</tri3>
			<tri3 id="1192">7,2088,2148</tri3>
			<tri3 id="1193">7,1910,1523</tri3>
			<tri3 id="1194">8,10,9</tri3>
			<tri3 id="1195">8,996,10</tri3>
			<tri3 id="1196">8,9,614</tri3>
			<tri3 id="1197">8,614,615</tri3>
			<tri3 id="1198">8,615,996</tri3>
			<tri3 id="1199">9,467,168</tri3>
			<tri3 id="1200">9,2207,467</tri3>
			<tri3 id="1201">9,10,2207</tri3>
			<tri3 id="1202">9,168,614</tri3>
			<tri3 id="1203">10,763,155</tri3>
			<tri3 id="1204">10,996,763</tri3>
<!-- ... 1116 like lines cut -->
		</Surface>
		<Surface name="ALL_FACES">
			<tri3 id="2321">1,1085,182</tri3>
			<tri3 id="2322">1,182,3</tri3>
			<tri3 id="2323">1,3,2</tri3>
			<tri3 id="2324">1,68,1085</tri3>
			<tri3 id="2325">1,1404,68</tri3>
			<tri3 id="2326">1,2,1404</tri3>
			<tri3 id="2327">2,3,1455</tri3>
			<tri3 id="2328">2,1455,121</tri3>
			<tri3 id="2329">2,2251,1404</tri3>
			<tri3 id="2330">2,121,2251</tri3>
			<tri3 id="2331">3,2212,2519</tri3>
			<tri3 id="2332">3,2519,1958</tri3>
			<tri3 id="2333">3,182,2212</tri3>
			<tri3 id="2334">3,1958,1455</tri3>
			<tri3 id="2335">4,7,2148</tri3>
			<tri3 id="2336">4,2148,772</tri3>
			<tri3 id="2337">4,772,6</tri3>
			<tri3 id="2338">4,6,5</tri3>
			<tri3 id="2339">4,5,7</tri3>
			<tri3 id="2340">5,1691,1910</tri3>
<!-- ... 5510 like lines cut -->
		</Surface>
		<Surface name="ZP_FACES">
			<tri3 id="7851">28,1551,2402</tri3>
			<tri3 id="7852">28,958,1551</tri3>
			<tri3 id="7853">28,721,958</tri3>
			<tri3 id="7854">36,2588,2559</tri3>
			<tri3 id="7855">36,2559,1303</tri3>
			<tri3 id="7856">36,1303,38</tri3>
			<tri3 id="7857">36,38,37</tri3>
			<tri3 id="7858">36,1901,2588</tri3>
			<tri3 id="7859">36,37,1901</tri3>
			<tri3 id="7860">37,2055,2589</tri3>
			<tri3 id="7861">37,2589,2141</tri3>
			<tri3 id="7862">37,2141,1901</tri3>
			<tri3 id="7863">37,1929,2055</tri3>
			<tri3 id="7864">37,38,1929</tri3>
			<tri3 id="7865">38,1303,1304</tri3>
			<tri3 id="7866">38,1304,1929</tri3>
			<tri3 id="7867">48,49,1795</tri3>
			<tri3 id="7868">48,2602,50</tri3>
			<tri3 id="7869">48,50,49</tri3>
			<tri3 id="7870">48,1795,2229</tri3>
<!-- ... 1184 like lines cut -->
		</Surface>
		<Surface name="XN_FACES">
			<tri3 id="9055">14,2215,967</tri3>
			<tri3 id="9056">14,967,16</tri3>
			<tri3 id="9057">14,16,15</tri3>
			<tri3 id="9058">15,16,1920</tri3>
			<tri3 id="9059">15,1920,273</tri3>
			<tri3 id="9060">16,967,1999</tri3>
			<tri3 id="9061">16,1999,1920</tri3>
			<tri3 id="9062">41,377,832</tri3>
			<tri3 id="9063">41,832,833</tri3>
			<tri3 id="9064">41,974,377</tri3>
			<tri3 id="9065">57,937,1020</tri3>
			<tri3 id="9066">57,1020,59</tri3>
			<tri3 id="9067">57,58,1613</tri3>
			<tri3 id="9068">57,59,58</tri3>
			<tri3 id="9069">57,1613,1119</tri3>
			<tri3 id="9070">57,753,937</tri3>
			<tri3 id="9071">57,1119,753</tri3>
			<tri3 id="9072">58,447,350</tri3>
			<tri3 id="9073">58,856,1753</tri3>
			<tri3 id="9074">58,1753,447</tri3>
<!-- ... 414 like lines cut -->
		</Surface>
		<Surface name="XP_FACES">
			<tri3 id="9489">1,1085,182</tri3>
			<tri3 id="9490">1,182,3</tri3>
			<tri3 id="9491">1,3,2</tri3>
			<tri3 id="9492">1,68,1085</tri3>
			<tri3 id="9493">1,1404,68</tri3>
			<tri3 id="9494">1,2,1404</tri3>
			<tri3 id="9495">2,3,1455</tri3>
			<tri3 id="9496">2,1455,121</tri3>
			<tri3 id="9497">2,2251,1404</tri3>
			<tri3 id="9498">2,121,2251</tri3>
			<tri3 id="9499">3,2212,2519</tri3>
			<tri3 id="9500">3,2519,1958</tri3>
			<tri3 id="9501">3,182,2212</tri3>
			<tri3 id="9502">3,1958,1455</tri3>
			<tri3 id="9503">42,653,781</tri3>
			<tri3 id="9504">42,44,653</tri3>
			<tri3 id="9505">42,43,44</tri3>
			<tri3 id="9506">43,512,44</tri3>
			<tri3 id="9507">43,513,512</tri3>
			<tri3 id="9508">44,1159,1364</tri3>
<!-- ... 412 like lines cut -->
		</Surface>
		<Surface name="ZN_FACES">
			<tri3 id="9921">4,2148,772</tri3>
			<tri3 id="9922">4,772,6</tri3>
			<tri3 id="9923">4,6,5</tri3>
			<tri3 id="9924">5,6,242</tri3>
			<tri3 id="9925">5,242,1691</tri3>
			<tri3 id="9926">6,1029,242</tri3>
			<tri3 id="9927">6,773,1566</tri3>
			<tri3 id="9928">6,1566,1029</tri3>
			<tri3 id="9929">6,772,773</tri3>
			<tri3 id="9930">11,993,12</tri3>
			<tri3 id="9931">11,1319,1204</tri3>
			<tri3 id="9932">11,1204,993</tri3>
			<tri3 id="9933">11,72,1319</tri3>
			<tri3 id="9934">11,12,13</tri3>
			<tri3 id="9935">11,13,72</tri3>
			<tri3 id="9936">12,2256,13</tri3>
			<tri3 id="9937">12,2573,2256</tri3>
			<tri3 id="9938">12,994,2573</tri3>
			<tri3 id="9939">12,993,994</tri3>
			<tri3 id="9940">13,618,72</tri3>
<!-- ... 1120 like lines cut -->
		</Surface>
	</Geometry>
	<Boundary>
		<fix node_set="XN_NODES" bc="x,y,z" />
	</Boundary>
	<Loads>
		<surface_load type="pressure" surface="XP_FACES">
			<pressure lc="1">1*surface_load_XP_FACES_scale</pressure>
			<linear>0</linear>
			<symmetric_stiffness>1</symmetric_stiffness>
		</surface_load>
	</Loads>
	<Discrete />
	<LoadData>
		<loadcurve id="1" type="smooth">
			<point>0,0</point>
			<point>1,1</point>
		</loadcurve>
	</LoadData>
	<Output>
		<plotfile type="febio">
			<var type="displacement" />
			<var type="element strain energy" />
			<var type="Lagrange strain" />
			<var type="stress" />
		</plotfile>
	</Output>
	<MeshData>
		<SurfaceData surface="XP_FACES" name="surface_load_XP_FACES_scale">
			<face lid="1">-4.353938267915284</face>
			<face lid="2">-4.219829609436706</face>
			<face lid="3">-4.27369322648251</face>
			<face lid="4">-4.532750348990167</face>
			<face lid="5">-4.622157194182778</face>
			<face lid="6">-4.4972087301537</face>
			<face lid="7">-4.197263859863468</face>
			<face lid="8">-4.310081342557283</face>
			<face lid="9">-4.613576351455314</face>
			<face lid="10">-4.502878330477941</face>
			<face lid="11">-3.9338696459922486</face>
			<face lid="12">-3.8940585268264556</face>
			<face lid="13">-4.067978304470826</face>
			<face lid="14">-4.014182278459259</face>
			<face lid="15">-0.295178897721329</face>
			<face lid="16">-0.42928819992404227</face>
			<face lid="17">-0.5811403095450914</face>
			<face lid="18">-0.7202684069709613</face>
			<face lid="19">-0.8543770654495391</face>
			<face lid="20">-0.57892428920831</face>
<!-- ... 412 like lines cut -->
		</SurfaceData>
	</MeshData>
</febio_spec>