<?xml version='1.0' encoding='ISO-8859-1'?>
<febio_spec version="2.5">
	<Module type="solid" />
	<Control>
		<time_steps>20</time_steps>
		<step_size>0.05</step_size>
		<max_refs>15</max_refs>
		<max_ups>10</max_ups>
		<diverge_reform>1</diverge_reform>
		<reform_each_time_step>1</reform_each_time_step>
		<dtol>0.001</dtol>
		<etol>0.01</etol>
		<rtol>0</rtol>
		<lstol>0.9</lstol>
		<min_residual>1e-20</min_residual>
		<qnmethod>Broyden</qnmethod>
		<rhoi>0</rhoi>
		<time_stepper>
			<dtmin>0.0001</dtmin>
			<dtmax lc="2">0.1</dtmax>
			<max_retries>5</max_retries>
			<opt_iter>10</opt_iter>
		</time_stepper>
		<analysis type="static" />
		<print_level>PRINT_NEVER</print_level>
		<plot_level>PLOT_MUST_POINTS</plot_level>
		<output_level>OUTPUT_MUST_POINTS</output_level>
		<integration>
			<rule elem="tet4" type="UT4">
				<alpha>0.05</alpha>
				<iso_stab>1</iso_stab>
			</rule>
		</integration>
	</Control>
	<Material>
		<material id="1" type="Mooney-Rivlin" name="mooney_rivlin">
			<c1>0.5307090481743216</c1>
			<c2>0.1416590134613216</c2>
			<k>100.0</k>
		</material>
	</Material>
	<Globals>
		<Constants>
			<T>0</T>
			<R>0</R>
			<Fc>0</Fc>
		</Constants>
	</Globals>
	<Geometry>
		<Nodes name="SMGNN_BENCHMARK">
			<node id="1">0.798569,2.23093,0.704593</node>
			<node id="2">1.06369,2.34757,0.704593</node>
			<node id="3">1.10244,2.11552,0.704593</node>
			<node id="4">1.53381,0.929211,0.704593</node>
			<node id="5">1.80447,1.00896,0.704593</node>
			<node id="6">1.68172,0.752411,0.704593</node>
			<node id="7">0.0,0.173894,0.0</node>
			<node id="8">0.177023,0.0,0.0</node>
			<node id="9">0.0,0.0,0.0</node>
			<node id="10">4.95665,0.173894,0.704593</node>
			<node id="11">4.95665,0.0,0.704593</node>
			<node id="12">4.77963,0.0,0.704593</node>
			<node id="13">4.95665,0.0,0.528445</node>
			<node id="14">4.47648,2.34757,0.0</node>
			<node id="15">4.23239,2.4411,0.0</node>
			<node id="16">4.30379,2.07139,0.0</node>
			<node id="17">2.74386,0.0,0.505145</node>
			<node id="18">2.74386,0.0,0.352296</node>
			<node id="19">2.92089,0.0,0.460669</node>
			<node id="20">1.5047,4.52124,0.243924</node>
<!-- ... 1383 like lines cut -->
		</Nodes>
		<Elements type="tet4" mat="1" name="SMGNN_BENCHMARK">
			<elem id="1">1097,513,1132,1261</elem>
			<elem id="2">825,824,485,1159</elem>
			<elem id="3">1253,496,870,1390</elem>
			<elem id="4">1283,1156,1312,1326</elem>
			<elem id="5">863,1239,1249,1240</elem>
			<elem id="6">220,46,1150,1166</elem>
			<elem id="7">1140,1009,1165,1182</elem>
			<elem id="8">81,1190,1316,1290</elem>
			<elem id="9">1222,1152,754,1250</elem>
			<elem id="10">979,752,753,751</elem>
			<elem id="11">672,418,420,1076</elem>
			<elem id="12">395,993,396,1232</elem>
			<elem id="13">806,1346,1142,752</elem>
			<elem id="14">286,1263,287,933</elem>
			<elem id="15">433,869,952,1207</elem>
			<elem id="16">1357,1397,1386,1375</elem>
			<elem id="17">1263,286,287,285</elem>
			<elem id="18">1289,698,684,297</elem>
			<elem id="19">905,1066,86,1323</elem>
			<elem id="20">735,1173,1225,1347</elem>
<!-- ... 4760 like lines cut -->
		</Elements>
		<NodeSet name="XN_NODES">
			<node id="7" />
			<node id="9" />
			<node id="23" />
			<node id="39" />
			<node id="40" />
			<node id="41" />
			<node id="55" />
			<node id="58" />
			<node id="59" />
			<node id="60" />
			<node id="87" />
			<node id="89" />
			<node id="102" />
			<node id="103" />
			<node id="104" />
			<node id="160" />
			<node id="161" />
			<node id="162" />
			<node id="237" />
			<node id="238" />
<!-- ... 87 like lines cut -->
		</NodeSet>
		<NodeSet name="ZN_NODES">
			<node id="7" />
			<node id="8" />
			<node id="9" />
			<node id="14" />
			<node id="15" />
			<node id="16" />
			<node id="24" />
			<node id="25" />
			<node id="26" />
			<node id="29" />
			<node id="36" />
			<node id="37" />
			<node id="38" />
			<node id="45" />
			<node id="46" />
			<node id="47" />
			<node id="61" />
			<node id="62" />
			<node id="77" />
			<node id="78" />
<!-- ... 444 like lines cut -->
		</NodeSet>
		<NodeSet name="YN_NODES">
			<node id="8" />
			<node id="9" />
			<node id="11" />
			<node id="12" />
			<node id="13" />
			<node id="17" />
			<node id="18" />
			<node id="19" />
			<node id="23" />
			<node id="33" />
			<node id="34" />
			<node id="35" />
			<node id="42" />
			<node id="43" />
			<node id="44" />
			<node id="62" />
			<node id="70" />
			<node id="71" />
			<node id="73" />
			<node id="81" />
<!-- ... 102 like lines cut -->
		</NodeSet>
		<NodeSet name="ZP_NODES">
			<node id="1" />
			<node id="2" />
			<node id="3" />
			<node id="4" />
			<node id="5" />
			<node id="6" />
			<node id="10" />
			<node id="11" />
			<node id="12" />
			<node id="30" />
			<node id="31" />
			<node id="32" />
			<node id="34" />
			<node id="35" />
			<node id="48" />
			<node id="49" />
			<node id="50" />
			<node id="51" />
			<node id="53" />
			<node id="54" />
<!-- ... 436 like lines cut -->
		</NodeSet>
		<NodeSet name="ALL_NODES">
			<node id="1" />
			<node id="2" />
			<node id="3" />
			<node id="4" />
			<node id="5" />
			<node id="6" />
			<node id="7" />
			<node id="8" />
			<node id="9" />
			<node id="10" />
			<node id="11" />
			<node id="12" />
			<node id="13" />
			<node id="14" />
			<node id="15" />
			<node id="16" />
			<node id="17" />
			<node id="18" />
			<node id="19" />
			<node id="20" />
<!-- ... 1383 like lines cut -->
		</NodeSet>
		<NodeSet name="XP_NODES">
			<node id="10" />
			<node id="11" />
			<node id="13" />
			<node id="27" />
			<node id="28" />
			<node id="29" />
			<node id="51" />
			<node id="52" />
			<node id="53" />
			<node id="65" />
			<node id="66" />
			<node id="78" />
			<node id="79" />
			<node id="80" />
			<node id="93" />
			<node id="94" />
			<node id="98" />
			<node id="114" />
			<node id="115" />
			<node id="116" />
<!-- ... 84 like lines cut -->
		</NodeSet>
		<NodeSet name="YP_NODES">
			<node id="20" />
			<node id="21" />
			<node id="22" />
			<node id="64" />
			<node id="66" />
			<node id="74" />
			<node id="75" />
			<node id="76" />
			<node id="77" />
			<node id="79" />
			<node id="80" />
			<node id="151" />
			<node id="152" />
			<node id="153" />
			<node id="181" />
			<node id="182" />
			<node id="183" />
			<node id="193" />
			<node id="194" />
			<node id="195" />
<!-- ... 101 like lines cut -->
		</NodeSet>
		<NodeSet name="ALL_NODES">
			<node id="1" />
			<node id="2" />
			<node id="3" />
			<node id="4" />
			<node id="5" />
			<node id="6" />
			<node id="7" />
			<node id="8" />
			<node id="9" />
			<node id="10" />
			<node id="11" />
			<node id="12" />
			<node id="13" />
			<node id="14" />
			<node id="15" />
			<node id="16" />
			<node id="17" />
			<node id="18" />
			<node id="19" />
			<node id="20" />
<!-- ... 1383 like lines cut -->
		</NodeSet>
		<Surface name="YN_FACES">
			<tri3 id="1">8,23,9</tri3>
			<tri3 id="2">8,62,145</tri3>
			<tri3 id="3">8,145,23</tri3>
			<tri3 id="4">11,12,13</tri3>
			<tri3 id="5">12,172,174</tri3>
			<tri3 id="6">12,174,13</tri3>
			<tri3 id="7">13,174,649</tri3>
			<tri3 id="8">17,843,18</tri3>
			<tri3 id="9">17,196,843</tri3>
			<tri3 id="10">17,197,196</tri3>
			<tri3 id="11">17,19,197</tri3>
			<tri3 id="12">17,18,19</tri3>
			<tri3 id="13">18,591,19</tri3>
			<tri3 id="14">18,592,591</tri3>
			<tri3 id="15">18,661,592</tri3>
			<tri3 id="16">18,843,661</tri3>
			<tri3 id="17">19,502,414</tri3>
			<tri3 id="18">19,414,197</tri3>
			<tri3 id="19">19,591,425</tri3>
			<tri3 id="20">19,425,502</tri3>
<!-- ... 158 like lines cut -->
		</Surface>
		<Surface name="XN_FACES">
			<tri3 id="179">7,9,23</tri3>
			<tri3 id="180">7,23,383</tri3>
			<tri3 id="181">7,383,706</tri3>
			<tri3 id="182">23,87,383</tri3>
			<tri3 id="183">39,285,40</tri3>
			<tri3 id="184">39,41,104</tri3>
			<tri3 id="185">39,263,580</tri3>
			<tri3 id="186">39,104,263</tri3>
			<tri3 id="187">39,580,285</tri3>
			<tri3 id="188">39,40,41</tri3>
			<tri3 id="189">40,287,752</tri3>
			<tri3 id="190">40,752,438</tri3>
			<tri3 id="191">40,285,287</tri3>
			<tri3 id="192">40,438,41</tri3>
			<tri3 id="193">41,237,104</tri3>
			<tri3 id="194">41,438,885</tri3>
			<tri3 id="195">41,885,884</tri3>
			<tri3 id="196">41,884,237</tri3>
			<tri3 id="197">55,284,103</tri3>
			<tri3 id="198">55,103,412</tri3>
<!-- ... 132 like lines cut -->
		</Surface>
		<Surface name="ALL_FACES">
			<tri3 id="331">1,3,2</tri3>
			<tri3 id="332">1,355,3</tri3>
			<tri3 id="333">1,2,803</tri3>
			<tri3 id="334">1,695,711</tri3>
			<tri3 id="335">1,711,355</tri3>
			<tri3 id="336">1,1054,694</tri3>
			<tri3 id="337">1,694,695</tri3>
			<tri3 id="338">1,803,1054</tri3>
			<tri3 id="339">2,775,803</tri3>
			<tri3 id="340">2,767,775</tri3>
			<tri3 id="341">2,766,767</tri3>
			<tri3 id="342">2,3,766</tri3>
			<tri3 id="343">3,356,113</tri3>
			<tri3 id="344">3,355,356</tri3>
			<tri3 id="345">3,113,766</tri3>
			<tri3 id="346">4,814,167</tri3>
			<tri3 id="347">4,924,6</tri3>
			<tri3 id="348">4,167,456</tri3>
			<tri3 id="349">4,6,5</tri3>
			<tri3 id="350">4,5,814</tri3>
<!-- ... 2252 like lines cut -->
		</Surface>
		<Surface name="ZP_FACES">
			<tri3 id="2603">1,3,2</tri3>
			<tri3 id="2604">1,355,3</tri3>
			<tri3 id="2605">1,2,803</tri3>
			<tri3 id="2606">1,695,711</tri3>
			<tri3 id="2607">1,711,355</tri3>
			<tri3 id="2608">1,1054,694</tri3>
			<tri3 id="2609">1,694,695</tri3>
			<tri3 id="2610">1,803,1054</tri3>
			<tri3 id="2611">2,775,803</tri3>
			<tri3 id="2612">2,767,775</tri3>
			<tri3 id="2613">2,766,767</tri3>
			<tri3 id="2614">2,3,766</tri3>
			<tri3 id="2615">3,356,113</tri3>
			<tri3 id="2616">3,355,356</tri3>
			<tri3 id="2617">3,113,766</tri3>
			<tri3 id="2618">4,814,167</tri3>
			<tri3 id="2619">4,924,6</tri3>
			<tri3 id="2620">4,167,456</tri3>
			<tri3 id="2621">4,6,5</tri3>
			<tri3 id="2622">4,5,814</tri3>
<!-- ... 782 like lines cut -->
		</Surface>
		<Surface name="ZN_FACES">
			<tri3 id="3405">7,8,9</tri3>
			<tri3 id="3406">7,61,8</tri3>
			<tri3 id="3407">7,706,61</tri3>
			<tri3 id="3408">8,61,62</tri3>
			<tri3 id="3409">14,690,736</tri3>
			<tri3 id="3410">14,712,690</tri3>
			<tri3 id="3411">14,893,16</tri3>
			<tri3 id="3412">14,282,893</tri3>
			<tri3 id="3413">14,736,282</tri3>
			<tri3 id="3414">14,16,15</tri3>
			<tri3 id="3415">14,15,712</tri3>
			<tri3 id="3416">15,253,956</tri3>
			<tri3 id="3417">15,865,253</tri3>
			<tri3 id="3418">15,956,712</tri3>
			<tri3 id="3419">15,16,865</tri3>
			<tri3 id="3420">16,1028,991</tri3>
			<tri3 id="3421">16,897,865</tri3>
			<tri3 id="3422">16,893,1028</tri3>
			<tri3 id="3423">16,991,897</tri3>
			<tri3 id="3424">24,25,26</tri3>
<!-- ... 798 like lines cut -->
		</Surface>
		<Surface name="YP_FACES">
			<tri3 id="4223">20,788,1125</tri3>
			<tri3 id="4224">20,727,788</tri3>
			<tri3 id="4225">20,21,727</tri3>
			<tri3 id="4226">20,810,22</tri3>
			<tri3 id="4227">20,22,21</tri3>
			<tri3 id="4228">20,1125,810</tri3>
			<tri3 id="4229">21,385,728</tri3>
			<tri3 id="4230">21,986,1001</tri3>
			<tri3 id="4231">21,22,986</tri3>
			<tri3 id="4232">21,1001,385</tri3>
			<tri3 id="4233">21,728,727</tri3>
			<tri3 id="4234">22,1073,985</tri3>
			<tri3 id="4235">22,810,207</tri3>
			<tri3 id="4236">22,207,1073</tri3>
			<tri3 id="4237">22,985,986</tri3>
			<tri3 id="4238">64,66,508</tri3>
			<tri3 id="4239">64,508,280</tri3>
			<tri3 id="4240">64,280,279</tri3>
			<tri3 id="4241">74,558,329</tri3>
			<tri3 id="4242">74,329,75</tri3>
<!-- ... 156 like lines cut -->
		</Surface>
		<Surface name="XP_FACES">
			<tri3 id="4399">10,149,148</tri3>
			<tri3 id="4400">10,11,13</tri3>
			<tri3 id="4401">10,13,149</tri3>
			<tri3 id="4402">13,649,149</tri3>
			<tri3 id="4403">27,29,158</tri3>
			<tri3 id="4404">27,158,951</tri3>
			<tri3 id="4405">27,28,29</tri3>
			<tri3 id="4406">27,320,28</tri3>
			<tri3 id="4407">27,951,320</tri3>
			<tri3 id="4408">28,115,689</tri3>
			<tri3 id="4409">28,114,115</tri3>
			<tri3 id="4410">28,581,114</tri3>
			<tri3 id="4411">28,321,581</tri3>
			<tri3 id="4412">28,320,321</tri3>
			<tri3 id="4413">28,689,29</tri3>
			<tri3 id="4414">51,53,52</tri3>
			<tri3 id="4415">51,52,836</tri3>
			<tri3 id="4416">51,836,835</tri3>
			<tri3 id="4417">52,201,240</tri3>
			<tri3 id="4418">52,53,342</tri3>
<!-- ... 126 like lines cut -->
		</Surface>
	</Geometry>
	<Boundary>
		<fix node_set="XN_NODES" bc="x,y,z" />
	</Boundary>
	<Loads>
		<surface_load type="pressure" surface="ZP_FACES">
			<pressure lc="1">1*surface_load_ZP_FACES_scale</pressure>
			<linear>0</linear>
			<symmetric_stiffness>1</symmetric_stiffness>
		</surface_load>
	</Loads>
	<Discrete />
	<LoadData>
		<loadcurve id="1" type="smooth">
			<point>0,0</point>
			<point>1,1</point>
		</loadcurve>
		<loadcurve id="2" type="step">
			<point>0.0,1.0</point>
			<point>0.1,1.0</point>
			<point>0.2,1.0</point>
			<point>0.3,1.0</point>
			<point>0.4,1.0</point>
			<point>0.5,1.0</point>
			<point>0.6,1.0</point>
			<point>0.7,1.0</point>
			<point>0.8,1.0</point>
			<point>0.9,1.0</point>
			<point>1.0,1.0</point>
		</loadcurve>
	</LoadData>
	<Output>
		<plotfile type="febio">
			<!-- Standard attributes -->
			<var type="displacement" />
			<var type="Lagrange strain" />
			<var type="stress" />
			<!-- Additional metrics -->
			<var type="deviatoric strain energy density" />
			<var type="element kinetic energy" />
			<!-- <var type="left Hencky" /> -->
			<!-- <var type="left stretch" /> -->
			<!-- <var type="right Hencky" /> -->
			<!-- <var type="right stretch" /> -->
			<var type="relative volume" />
			<!-- Shell-specific values -->
			<!-- <var type="shell strain" /> -->
			<!-- Strain energy values -->
			<var type="element strain energy" />
			<var type="strain energy density" />
			<var type="specific strain energy" />
		</plotfile>
	</Output>
	<MeshData>
		<SurfaceData surface="ZP_FACES" name="surface_load_ZP_FACES_scale">
			<face lid="1">-0.001546096666465638</face>
			<face lid="2">-0.0014609415085725316</face>
			<face lid="3">-0.0015892127987451122</face>
			<face lid="4">-0.0013333686256266795</face>
			<face lid="5">-0.0013571163722456176</face>
			<face lid="6">-0.00147901218542725</face>
			<face lid="7">-0.001397956486028089</face>
			<face lid="8">-0.0015613655936322292</face>
			<face lid="9">-0.0016990651230141898</face>
			<face lid="10">-0.0017569994032859315</face>
			<face lid="11">-0.0017244924981568185</face>
			<face lid="12">-0.0016234420856056032</face>
			<face lid="13">-0.0014937977032914375</face>
			<face lid="14">-0.0014473334728475648</face>
			<face lid="15">-0.0015847511581563696</face>
			<face lid="16">-0.0011677435301713154</face>
			<face lid="17">-0.001065676431588822</face>
			<face lid="18">-0.0010761012151176616</face>
			<face lid="19">-0.0011821604891678762</face>
			<face lid="20">-0.0012328131776141059</face>
<!-- ... 782 like lines cut -->
		</SurfaceData>
	</MeshData>
</febio_spec>