<?xml version='1.0' encoding='ISO-8859-1'?>
<febio_spec version="2.5">
	<Module type="solid" />
	<Globals>
		<Constants>
			<T>0</T>
			<R>0</R>
			<Fc>0</Fc>
		</Constants>
	</Globals>
	<Control>
		<time_steps>10</time_steps>
		<step_size>0.1</step_size>
		<max_refs>15</max_refs>
		<max_ups>10</max_ups>
		<diverge_reform>1</diverge_reform>
		<reform_each_time_step>1</reform_each_time_step>
		<dtol>0.001</dtol>
		<etol>0.01</etol>
		<rtol>0</rtol>
		<lstol>0.75</lstol>
		<min_residual>1e-20</min_residual>
		<qnmethod>0</qnmethod>
		<rhoi>0</rhoi>
		<time_stepper>
			<dtmin>0.01</dtmin>
			<dtmax>0.1</dtmax>
			<max_retries>5</max_retries>
			<opt_iter>10</opt_iter>
		</time_stepper>
		<analysis type="static" />
	</Control>
	<Material>
		<material id="1" name="SMGNN_BENCHMARK_MATERIAL" type="isotropic elastic">
			<density>1</density>
			<E>0.5</E>
			<v>0.25</v>
		</material>
	</Material>
	<Geometry>
		<Nodes name="SMGNN_BENCHMARK">
			<node id="1">0.0,0.0,0.0</node>
			<node id="2">0.16666666666666666,0.0,0.0</node>
			<node id="3">0.3333333333333333,0.0,0.0</node>
			<node id="4">0.5,0.0,0.0</node>
			<node id="5">0.6666666666666666,0.0,0.0</node>
			<node id="6">0.8333333333333334,0.0,0.0</node>
			<node id="7">1.0,0.0,0.0</node>
			<node id="8">1.1666666666666665,0.0,0.0</node>
			<node id="9">1.3333333333333333,0.0,0.0</node>
			<node id="10">1.5,0.0,0.0</node>
			<node id="11">1.6666666666666667,0.0,0.0</node>
			<node id="12">1.833333333333333,0.0,0.0</node>
			<node id="13">2.0,0.0,0.0</node>
			<node id="14">2.1666666666666665,0.0,0.0</node>
			<node id="15">2.333333333333333,0.0,0.0</node>
			<node id="16">2.5,0.0,0.0</node>
			<node id="17">2.6666666666666665,0.0,0.0</node>
			<node id="18">2.833333333333333,0.0,0.0</node>
			<node id="19">3.0,0.0,0.0</node>
			<node id="20">0.0,0.16666666666666666,0.0</node>
<!-- ... 113 like lines cut -->
		</Nodes>
		<Elements type="tri3" mat="1" name="SMGNN_BENCHMARK">
			<elem id="1">1,2,21</elem>
			<elem id="2">2,3,22</elem>
			<elem id="3">3,4,23</elem>
			<elem id="4">4,5,24</elem>
			<elem id="5">5,6,25</elem>
			<elem id="6">6,7,26</elem>
			<elem id="7">7,8,27</elem>
			<elem id="8">8,9,28</elem>
			<elem id="9">9,10,29</elem>
			<elem id="10">10,11,30</elem>
			<elem id="11">11,12,31</elem>
			<elem id="12">12,13,32</elem>
			<elem id="13">13,14,33</elem>
			<elem id="14">14,15,34</elem>
			<elem id="15">15,16,35</elem>
			<elem id="16">16,17,36</elem>
			<elem id="17">17,18,37</elem>
			<elem id="18">18,19,38</elem>
			<elem id="19">20,21,40</elem>
			<elem id="20">21,22,41</elem>
<!-- ... 196 like lines cut -->
		</Elements>
		<NodeSet name="TOP_NODES">
			<node id="115" />
			<node id="116" />
			<node id="117" />
			<node id="118" />
			<node id="119" />
			<node id="120" />
			<node id="121" />
			<node id="122" />
			<node id="123" />
			<node id="124" />
			<node id="125" />
			<node id="126" />
			<node id="127" />
			<node id="128" />
			<node id="129" />
			<node id="130" />
			<node id="131" />
			<node id="132" />
			<node id="133" />
		</NodeSet>
		<NodeSet name="BOTTOM_NODES">
			<node id="1" />
			<node id="2" />
			<node id="3" />
			<node id="4" />
			<node id="5" />
			<node id="6" />
			<node id="7" />
			<node id="8" />
			<node id="9" />
			<node id="10" />
			<node id="11" />
			<node id="12" />
			<node id="13" />
			<node id="14" />
			<node id="15" />
			<node id="16" />
			<node id="17" />
			<node id="18" />
			<node id="19" />
		</NodeSet>
		<NodeSet name="LEFT_NODES">
			<node id="1" />
			<node id="20" />
			<node id="39" />
			<node id="58" />
			<node id="77" />
			<node id="96" />
			<node id="115" />
		</NodeSet>
		<NodeSet name="RIGHT_NODES">
			<node id="19" />
			<node id="38" />
			<node id="57" />
			<node id="76" />
			<node id="95" />
			<node id="114" />
			<node id="133" />
		</NodeSet>
		<NodeSet name="ALL_NODES">
			<node id="1" />
			<node id="2" />
			<node id="3" />
			<node id="4" />
			<node id="5" />
			<node id="6" />
			<node id="7" />
			<node id="8" />
			<node id="9" />
			<node id="10" />
			<node id="11" />
			<node id="12" />
			<node id="13" />
			<node id="14" />
			<node id="15" />
			<node id="16" />
			<node id="17" />
			<node id="18" />
			<node id="19" />
			<node id="20" />
<!-- ... 113 like lines cut -->
		</NodeSet>
	</Geometry>
	<MeshData>
		<ElementData var="shell thickness" name="shell_thickness_SMGNN_BENCHMARK" elem_set="SMGNN_BENCHMARK">
			<elem lid="1">0.01,0.01,0.01</elem>
			<elem lid="2">0.01,0.01,0.01</elem>
			<elem lid="3">0.01,0.01,0.01</elem>
			<elem lid="4">0.01,0.01,0.01</elem>
			<elem lid="5">0.01,0.01,0.01</elem>
			<elem lid="6">0.01,0.01,0.01</elem>
			<elem lid="7">0.01,0.01,0.01</elem>
			<elem lid="8">0.01,0.01,0.01</elem>
			<elem lid="9">0.01,0.01,0.01</elem>
			<elem lid="10">0.01,0.01,0.01</elem>
			<elem lid="11">0.01,0.01,0.01</elem>
			<elem lid="12">0.01,0.01,0.01</elem>
			<elem lid="13">0.01,0.01,0.01</elem>
			<elem lid="14">0.01,0.01,0.01</elem>
			<elem lid="15">0.01,0.01,0.01</elem>
			<elem lid="16">0.01,0.01,0.01</elem>
			<elem lid="17">0.01,0.01,0.01</elem>
			<elem lid="18">0.01,0.01,0.01</elem>
			<elem lid="19">0.01,0.01,0.01</elem>
			<elem lid="20">0.01,0.01,0.01</elem>
<!-- ... 196 like lines cut -->
		</ElementData>
		<NodeData name="RIGHT_NODES_X" node_set="RIGHT_NODES">
			<node lid="1">-3.2897357394525886e-21</node>
			<node lid="2">-3.2897357394525886e-21</node>
			<node lid="3">-3.2897357394525886e-21</node>
			<node lid="4">-3.2897357394525886e-21</node>
			<node lid="5">-3.2897357394525886e-21</node>
			<node lid="6">-3.2897357394525886e-21</node>
			<node lid="7">-3.2897357394525886e-21</node>
		</NodeData>
		<NodeData name="RIGHT_NODES_Y" node_set="RIGHT_NODES">
			<node lid="1">-1.7908487256587128e-05</node>
			<node lid="2">-1.7908487256587128e-05</node>
			<node lid="3">-1.7908487256587128e-05</node>
			<node lid="4">-1.7908487256587128e-05</node>
			<node lid="5">-1.7908487256587128e-05</node>
			<node lid="6">-1.7908487256587128e-05</node>
			<node lid="7">-1.7908487256587128e-05</node>
		</NodeData>
	</MeshData>
	<Boundary>
		<fix bc="x,y,z" node_set="LEFT_NODES" />
		<fix bc="sx,sy" node_set="LEFT_NODES" />
		<fix bc="z" node_set="ALL_NODES" />
	</Boundary>
	<Loads>
		<nodal_load bc="x" node_set="RIGHT_NODES">
			<scale lc="1">1*RIGHT_NODES_X</scale>
		</nodal_load>
		<nodal_load bc="y" node_set="RIGHT_NODES">
			<scale lc="1">1*RIGHT_NODES_Y</scale>
		</nodal_load>
	</Loads>
	<LoadData>
		<loadcurve id="1" type="smooth">
			<point>0,0</point>
			<point>1,1</point>
		</loadcurve>
	</LoadData>
	<Output>
		<plotfile type="febio">
			<var type="displacement" />
			<var type="element strain energy" />
			<var type="Lagrange strain" />
			<var type="stress" />
		</plotfile>
	</Output>
</febio_spec>