<?xml version="1.0" encoding="ISO-8859-1"?>
<febio_spec version="3.0">
	<Module type="solid"/>
	<Control>
		<analysis>STATIC</analysis>
		<time_steps>10</time_steps>
		<step_size>0.1</step_size>
		<solver>
			<max_refs>15</max_refs>
			<max_ups>10</max_ups>
			<diverge_reform>1</diverge_reform>
			<reform_each_time_step>1</reform_each_time_step>
			<dtol>0.001</dtol>
			<etol>0.01</etol>
			<rtol>0</rtol>
			<lstol>0.75</lstol>
			<min_residual>1e-20</min_residual>
			<qnmethod>BFGS</qnmethod>
			<rhoi>0</rhoi>
		</solver>
		<time_stepper>
			<dtmin>0.01</dtmin>
			<dtmax>0.1</dtmax>
			<max_retries>5</max_retries>
			<opt_iter>10</opt_iter>
		</time_stepper>
	</Control>
	<Globals>
		<Constants>
			<T>0</T>
			<R>0</R>
			<Fc>0</Fc>
		</Constants>
	</Globals>
	<Material>
		<material id="1" name="Part1" type="isotropic elastic">
			<density>1</density>
			<E>0.679449155</E>
			<v>0.242741151</v>
		</material>
	</Material>
	<Mesh>
		<Nodes name="Part1">
			<node id="1">0,0,0</node>
			<node id="2">0.166666667,0,0</node>
			<node id="3">0.333333333,0,0</node>
			<node id="4">0.5,0,0</node>
			<node id="5">0.666666667,0,0</node>
			<node id="6">0.833333333,0,0</node>
			<node id="7">1,0,0</node>
			<node id="8">1.16666667,0,0</node>
			<node id="9">1.33333333,0,0</node>
			<node id="10">1.5,0,0</node>
			<node id="11">1.66666667,0,0</node>
			<node id="12">1.83333333,0,0</node>
			<node id="13">2,0,0</node>
			<node id="14">2.16666667,0,0</node>
			<node id="15">2.33333333,0,0</node>
			<node id="16">2.5,0,0</node>
			<node id="17">2.66666667,0,0</node>
			<node id="18">2.83333333,0,0</node>
			<node id="19">3,0,0</node>
			<node id="20">0,0.166666667,0</node>
<!-- ... 113 like lines cut -->
		</Nodes>
		<!-- <Nodes name="Part2">
			<node id="134">0,0,5.0</node>
			<node id="135">0.166666667,0,5.0</node>
			<node id="136">0.333333333,0,5.0</node>
		</Nodes> -->
		<Elements type="tri3" name="Part1">
			<elem id="1">1,2,21</elem>
			<elem id="2">2,3,22</elem>
			<elem id="3">3,4,23</elem>
			<elem id="4">4,5,24</elem>
			<elem id="5">5,6,25</elem>
			<elem id="6">6,7,26</elem>
			<elem id="7">7,8,27</elem>
			<elem id="8">8,9,28</elem>
			<elem id="9">9,10,29</elem>
			<elem id="10">10,11,30</elem>
			<elem id="11">11,12,31</elem>
			<elem id="12">12,13,32</elem>
			<elem id="13">13,14,33</elem>
			<elem id="14">14,15,34</elem>
			<elem id="15">15,16,35</elem>
			<elem id="16">16,17,36</elem>
			<elem id="17">17,18,37</elem>
			<elem id="18">18,19,38</elem>
			<elem id="19">20,21,40</elem>
			<elem id="20">21,22,41</elem>
<!-- ... 196 like lines cut -->
		</Elements>
		<NodeSet name="LEFT_NODES">
			<n id="1"/>
			<n id="20"/>
			<n id="39"/>
			<n id="58"/>
			<n id="77"/>
			<n id="96"/>
			<n id="115"/>
		</NodeSet>
		<NodeSet name="ALL_NODES">
			<n id="1"/>
			<n id="2"/>
			<n id="3"/>
			<n id="4"/>
			<n id="5"/>
			<n id="6"/>
			<n id="7"/>
			<n id="8"/>
			<n id="9"/>
			<n id="10"/>
			<n id="11"/>
			<n id="12"/>
			<n id="13"/>
			<n id="14"/>
			<n id="15"/>
			<n id="16"/>
			<n id="17"/>
			<n id="18"/>
			<n id="19"/>
			<n id="20"/>
<!-- ... 113 like lines cut -->
		</NodeSet>
		<NodeSet name="NODAL_LOAD_X">
			<n id="19"/>
			<n id="38"/>
			<n id="57"/>
			<n id="76"/>
			<n id="95"/>
			<n id="114"/>
			<n id="133"/>
		</NodeSet>
		<NodeSet name="NODAL_LOAD_Y">
			<n id="19"/>
			<n id="38"/>
			<n id="57"/>
			<n id="76"/>
			<n id="95"/>
			<n id="114"/>
			<n id="133"/>
		</NodeSet>
		<NodeSet name="RIGHT_NODES">
			<n id="19"/>
			<n id="38"/>
			<n id="57"/>
			<n id="76"/>
			<n id="95"/>
			<n id="114"/>
			<n id="133"/>
		</NodeSet>
	</Mesh>
	<MeshDomains>
		<ShellDomain name="Part1" mat="Part1">
			<shell_normal_nodal>1</shell_normal_nodal>
		</ShellDomain>
	</MeshDomains>
	<MeshData>
		<ElementData var="shell thickness" elem_set="Part1">
			<e lid="1">0.01,0.01,0.01</e>
			<e lid="2">0.01,0.01,0.01</e>
			<e lid="3">0.01,0.01,0.01</e>
			<e lid="4">0.01,0.01,0.01</e>
			<e lid="5">0.01,0.01,0.01</e>
			<e lid="6">0.01,0.01,0.01</e>
			<e lid="7">0.01,0.01,0.01</e>
			<e lid="8">0.01,0.01,0.01</e>
			<e lid="9">0.01,0.01,0.01</e>
			<e lid="10">0.01,0.01,0.01</e>
			<e lid="11">0.01,0.01,0.01</e>
			<e lid="12">0.01,0.01,0.01</e>
			<e lid="13">0.01,0.01,0.01</e>
			<e lid="14">0.01,0.01,0.01</e>
			<e lid="15">0.01,0.01,0.01</e>
			<e lid="16">0.01,0.01,0.01</e>
			<e lid="17">0.01,0.01,0.01</e>
			<e lid="18">0.01,0.01,0.01</e>
			<e lid="19">0.01,0.01,0.01</e>
			<e lid="20">0.01,0.01,0.01</e>
<!-- ... 196 like lines cut -->
		</ElementData>
		<NodeData name="RIGHT_NODES_X" data_type="scalar" node_set="RIGHT_NODES">
			<node lid="1">-3.28973574e-21</node>
			<node lid="2">-3.28973574e-21</node>
			<node lid="3">-3.28973574e-21</node>
			<node lid="4">-3.28973574e-21</node>
			<node lid="5">-3.28973574e-21</node>
			<node lid="6">-3.28973574e-21</node>
			<node lid="7">-3.28973574e-21</node>
		</NodeData>
		<NodeData name="RIGHT_NODES_Y" data_type="scalar" node_set="RIGHT_NODES">
			<node lid="1">-1.79084873e-05</node>
			<node lid="2">-1.79084873e-05</node>
			<node lid="3">-1.79084873e-05</node>
			<node lid="4">-1.79084873e-05</node>
			<node lid="5">-1.79084873e-05</node>
			<node lid="6">-1.79084873e-05</node>
			<node lid="7">-1.79084873e-05</node>
		</NodeData>
	</MeshData>
	<Boundary>
		<bc name="FixedDisplacement01" type="fix" node_set="LEFT_NODES">
			<dofs>x,y,z</dofs>
		</bc>
		<bc name="FixedDisplacement02" type="fix" node_set="ALL_NODES">
			<dofs>z</dofs>
		</bc>
	</Boundary>
	<Loads>
		<nodal_load name="NODAL_LOAD_X" type="nodal_load" node_set="NODAL_LOAD_X">
			<dof>x</dof>
			<scale lc="1">1*RIGHT_NODES_X</scale>
		</nodal_load>
		<nodal_load name="NODAL_LOAD_Y" type="nodal_load" node_set="NODAL_LOAD_Y">
			<dof>y</dof>
			<scale lc="1">1*RIGHT_NODES_Y</scale>
		</nodal_load>
	</Loads>
	<LoadData>
		<load_controller id="1" type="loadcurve">
			<interpolate>SMOOTH</interpolate>
			<points>
				<point>0,0</point>
				<point>1,1</point>
			</points>
		</load_controller>
	</LoadData>
	<Output>
		<plotfile type="febio">
			<var type="displacement"/>
			<var type="element strain energy"/>
			<var type="Lagrange strain"/>
			<var type="stress"/>
		</plotfile>
	</Output>
</febio_spec>
