<?xml version="1.0" encoding="ISO-8859-1"?>
<febio_spec version="4.0">
	<Module type="solid"/>
	<Control>
		<analysis>STATIC</analysis>
		<time_steps>10</time_steps>
		<step_size>0.1</step_size>
		<plot_zero_state>0</plot_zero_state>
		<plot_range>0,-1</plot_range>
		<plot_level>PLOT_MAJOR_ITRS</plot_level>
		<output_level>OUTPUT_MAJOR_ITRS</output_level>
		<plot_stride>1</plot_stride>
		<output_stride>1</output_stride>
		<adaptor_re_solve>1</adaptor_re_solve>
		<time_stepper type="default">
			<max_retries>5</max_retries>
			<opt_iter>10</opt_iter>
			<dtmin>0.01</dtmin>
			<dtmax>0.1</dtmax>
			<aggressiveness>0</aggressiveness>
			<cutback>0.5</cutback>
			<dtforce>0</dtforce>
		</time_stepper>
		<solver type="solid">
			<symmetric_stiffness>symmetric</symmetric_stiffness>
			<equation_scheme>staggered</equation_scheme>
			<equation_order>default</equation_order>
			<optimize_bw>0</optimize_bw>
			<lstol>0.75</lstol>
			<lsmin>0.01</lsmin>
			<lsiter>5</lsiter>
			<max_refs>15</max_refs>
			<check_zero_diagonal>0</check_zero_diagonal>
			<zero_diagonal_tol>0</zero_diagonal_tol>
			<force_partition>0</force_partition>
			<reform_each_time_step>1</reform_each_time_step>
			<reform_augment>0</reform_augment>
			<diverge_reform>1</diverge_reform>
			<min_residual>1e-20</min_residual>
			<max_residual>0</max_residual>
			<dtol>0.001</dtol>
			<etol>0.01</etol>
			<rtol>0</rtol>
			<rhoi>0</rhoi>
			<alpha>1</alpha>
			<beta>0.25</beta>
			<gamma>0.5</gamma>
			<logSolve>0</logSolve>
			<arc_length>0</arc_length>
			<arc_length_scale>0</arc_length_scale>
			<qn_method type="BFGS">
				<max_ups>10</max_ups>
				<max_buffer_size>0</max_buffer_size>
				<cycle_buffer>1</cycle_buffer>
				<cmax>100000</cmax>
			</qn_method>
		</solver>
	</Control>
	<Globals>
		<Constants>
			<T>0</T>
			<P>0</P>
			<R>0</R>
			<Fc>0</Fc>
		</Constants>
	</Globals>
	<Material>
		<material id="1" name="Part1" type="isotropic elastic">
			<density>1</density>
			<E>0.6794492</E>
			<v>0.2427412</v>
		</material>
	</Material>
	<Mesh>
		<Nodes name="Part1">
			<node id="1">0,0,0</node>
			<node id="2">0.166666667,0,0</node>
			<node id="3">0.333333333,0,0</node>
			<node id="4">0.5,0,0</node>
			<node id="5">0.666666667,0,0</node>
			<node id="6">0.833333333,0,0</node>
			<node id="7">1,0,0</node>
			<node id="8">1.16666667,0,0</node>
			<node id="9">1.33333333,0,0</node>
			<node id="10">1.5,0,0</node>
			<node id="11">1.66666667,0,0</node>
			<node id="12">1.83333333,0,0</node>
			<node id="13">2,0,0</node>
			<node id="14">2.16666667,0,0</node>
			<node id="15">2.33333333,0,0</node>
			<node id="16">2.5,0,0</node>
			<node id="17">2.66666667,0,0</node>
			<node id="18">2.83333333,0,0</node>
			<node id="19">3,0,0</node>
			<node id="20">0,0.166666667,0</node>
<!-- ... 113 like lines cut -->
		</Nodes>
		<Elements type="tri3" name="Part1">
			<elem id="1">1,2,21</elem>
			<elem id="2">2,3,22</elem>
			<elem id="3">3,4,23</elem>
			<elem id="4">4,5,24</elem>
			<elem id="5">5,6,25</elem>
			<elem id="6">6,7,26</elem>
			<elem id="7">7,8,27</elem>
			<elem id="8">8,9,28</elem>
			<elem id="9">9,10,29</elem>
			<elem id="10">10,11,30</elem>
			<elem id="11">11,12,31</elem>
			<elem id="12">12,13,32</elem>
			<elem id="13">13,14,33</elem>
			<elem id="14">14,15,34</elem>
			<elem id="15">15,16,35</elem>
			<elem id="16">16,17,36</elem>
			<elem id="17">17,18,37</elem>
			<elem id="18">18,19,38</elem>
			<elem id="19">20,21,40</elem>
			<elem id="20">21,22,41</elem>
<!-- ... 196 like lines cut -->
		</Elements>
		<NodeSet name="LEFT_NODES">
			1, 20, 39, 58, 77, 96, 115
		</NodeSet>
		<NodeSet name="ALL_NODES">
			1, 2, 3, 4, 5, 6, 7, 8,
			9, 10, 11, 12, 13, 14, 15, 16,
			17, 18, 19, 20, 21, 22, 23, 24,
			25, 26, 27, 28, 29, 30, 31, 32,
			33, 34, 35, 36, 37, 38, 39, 40,
			41, 42, 43, 44, 45, 46, 47, 48,
			49, 50, 51, 52, 53, 54, 55, 56,
			57, 58, 59, 60, 61, 62, 63, 64,
			65, 66, 67, 68, 69, 70, 71, 72,
			73, 74, 75, 76, 77, 78, 79, 80,
			81, 82, 83, 84, 85, 86, 87, 88,
			89, 90, 91, 92, 93, 94, 95, 96,
			97, 98, 99, 100, 101, 102, 103, 104,
			105, 106, 107, 108, 109, 110, 111, 112,
			113, 114, 115, 116, 117, 118, 119, 120,
			121, 122, 123, 124, 125, 126, 127, 128,
			129, 130, 131, 132, 133
		</NodeSet>
		<NodeSet name="NODAL_LOAD_X">
			19, 38, 57, 76, 95, 114, 133
		</NodeSet>
		<NodeSet name="NODAL_LOAD_Y">
			19, 38, 57, 76, 95, 114, 133
		</NodeSet>
		<NodeSet name="RIGHT_NODES">
			19, 38, 57, 76, 95, 114, 133
		</NodeSet>
	</Mesh>
	<MeshDomains>
		<ShellDomain name="Part1" mat="Part1" type="elastic-shell">
			<shell_thickness>0</shell_thickness>
			<shell_normal_nodal>1</shell_normal_nodal>
		</ShellDomain>
	</MeshDomains>
	<MeshData>
		<ElementData type="shell thickness" elem_set="Part1">
			<e lid="1">0.01,0.01,0.01</e>
			<e lid="2">0.01,0.01,0.01</e>
			<e lid="3">0.01,0.01,0.01</e>
			<e lid="4">0.01,0.01,0.01</e>
			<e lid="5">0.01,0.01,0.01</e>
			<e lid="6">0.01,0.01,0.01</e>
			<e lid="7">0.01,0.01,0.01</e>
			<e lid="8">0.01,0.01,0.01</e>
			<e lid="9">0.01,0.01,0.01</e>
			<e lid="10">0.01,0.01,0.01</e>
			<e lid="11">0.01,0.01,0.01</e>
			<e lid="12">0.01,0.01,0.01</e>
			<e lid="13">0.01,0.01,0.01</e>
			<e lid="14">0.01,0.01,0.01</e>
			<e lid="15">0.01,0.01,0.01</e>
			<e lid="16">0.01,0.01,0.01</e>
			<e lid="17">0.01,0.01,0.01</e>
			<e lid="18">0.01,0.01,0.01</e>
			<e lid="19">0.01,0.01,0.01</e>
			<e lid="20">0.01,0.01,0.01</e>
<!-- ... 196 like lines cut -->
		</ElementData>
		<NodeData name="RIGHT_NODES_X" data_type="scalar" node_set="RIGHT_NODES">
			<node lid="1">-3.289736e-21</node>
			<node lid="2">-3.289736e-21</node>
			<node lid="3">-3.289736e-21</node>
			<node lid="4">-3.289736e-21</node>
			<node lid="5">-3.289736e-21</node>
			<node lid="6">-3.289736e-21</node>
			<node lid="7">-3.289736e-21</node>
		</NodeData>
		<NodeData name="RIGHT_NODES_Y" data_type="scalar" node_set="RIGHT_NODES">
			<node lid="1">-1.790849e-05</node>
			<node lid="2">-1.790849e-05</node>
			<node lid="3">-1.790849e-05</node>
			<node lid="4">-1.790849e-05</node>
			<node lid="5">-1.790849e-05</node>
			<node lid="6">-1.790849e-05</node>
			<node lid="7">-1.790849e-05</node>
		</NodeData>
	</MeshData>
	<Boundary>
		<bc name="FixedDisplacement01" node_set="LEFT_NODES" type="zero displacement">
			<x_dof>1</x_dof>
			<y_dof>1</y_dof>
			<z_dof>1</z_dof>
		</bc>
		<bc name="FixedDisplacement02" node_set="ALL_NODES" type="zero displacement">
			<x_dof>0</x_dof>
			<y_dof>0</y_dof>
			<z_dof>1</z_dof>
		</bc>
	</Boundary>
	<Loads>
		<nodal_load name="NODAL_LOAD_X" node_set="NODAL_LOAD_X" type="nodal_force">
			<relative>0</relative>
			<value lc="1">1.65980035e+151,0,0</value>
			<shell_bottom>0</shell_bottom>
		</nodal_load>
		<nodal_load name="NODAL_LOAD_Y" node_set="NODAL_LOAD_Y" type="nodal_force">
			<relative>0</relative>
			<value lc="1">0,1.65980035e+151,0</value>
			<shell_bottom>0</shell_bottom>
		</nodal_load>
	</Loads>
	<LoadData>
		<load_controller id="1" name="LC1" type="loadcurve">
			<interpolate>SMOOTH</interpolate>
			<extend>CONSTANT</extend>
			<points>
				<pt>0,0</pt>
				<pt>1,1</pt>
			</points>
		</load_controller>
	</LoadData>
	<Output>
		<plotfile type="febio">
			<var type="displacement"/>
			<var type="element strain energy"/>
			<var type="Lagrange strain"/>
			<var type="stress"/>
		</plotfile>
	</Output>
</febio_spec>
