<?xml version='1.0' encoding='ISO-8859-1'?>
<febio_spec version="3.0">
	<Module type="solid" />
	<Control>
		<analysis>STATIC</analysis>
		<time_steps>10</time_steps>
		<step_size>0.1</step_size>
		<solver>
			<max_refs>15</max_refs>
			<max_ups>10</max_ups>
			<diverge_reform>1</diverge_reform>
			<reform_each_time_step>1</reform_each_time_step>
			<dtol>0.001</dtol>
			<etol>0.01</etol>
			<rtol>0</rtol>
			<lstol>0.75</lstol>
			<min_residual>1e-20</min_residual>
			<qnmethod>0</qnmethod>
			<rhoi>0</rhoi>
		</solver>
		<time_stepper>
			<dtmin>0.01</dtmin>
			<dtmax>0.1</dtmax>
			<max_retries>5</max_retries>
			<opt_iter>10</opt_iter>
		</time_stepper>
	</Control>
	<Material>
		<material id="1" type="isotropic elastic" name="plane material">
			<E>1000000.0</E>
			<v>0.3</v>
			<density>1</density>
		</material>
	</Material>
	<Globals>
		<Constants>
			<T>0</T>
			<R>0</R>
			<Fc>0</Fc>
		</Constants>
	</Globals>
	<Mesh>
		<Nodes name="plane">
			<node id="1">-1.0,-0.5,0.0</node>
			<node id="2">-0.9,-0.5,0.0</node>
			<node id="3">-0.8,-0.5,0.0</node>
			<node id="4">-0.7,-0.5,0.0</node>
			<node id="5">-0.6,-0.5,0.0</node>
			<node id="6">-0.5,-0.5,0.0</node>
			<node id="7">-0.4,-0.5,0.0</node>
			<node id="8">-0.3,-0.5,0.0</node>
			<node id="9">-0.2,-0.5,0.0</node>
			<node id="10">-0.1,-0.5,0.0</node>
			<node id="11">0.0,-0.5,0.0</node>
			<node id="12">0.1,-0.5,0.0</node>
			<node id="13">0.2,-0.5,0.0</node>
			<node id="14">0.3,-0.5,0.0</node>
			<node id="15">0.4,-0.5,0.0</node>
			<node id="16">0.5,-0.5,0.0</node>
			<node id="17">0.6,-0.5,0.0</node>
			<node id="18">0.7,-0.5,0.0</node>
			<node id="19">0.8,-0.5,0.0</node>
			<node id="20">0.9,-0.5,0.0</node>
<!-- ... 211 like lines cut -->
		</Nodes>
		<Elements type="tri3" name="plane_elements" part="Part1" mat="1">
			<elem id="1">1,2,22</elem>
			<elem id="2">23,22,2</elem>
			<elem id="3">2,3,23</elem>
			<elem id="4">24,23,3</elem>
			<elem id="5">3,4,24</elem>
			<elem id="6">25,24,4</elem>
			<elem id="7">4,5,25</elem>
			<elem id="8">26,25,5</elem>
			<elem id="9">5,6,26</elem>
			<elem id="10">27,26,6</elem>
			<elem id="11">6,7,27</elem>
			<elem id="12">28,27,7</elem>
			<elem id="13">7,8,28</elem>
			<elem id="14">29,28,8</elem>
			<elem id="15">8,9,29</elem>
			<elem id="16">30,29,9</elem>
			<elem id="17">9,10,30</elem>
			<elem id="18">31,30,10</elem>
			<elem id="19">10,11,31</elem>
			<elem id="20">32,31,11</elem>
<!-- ... 380 like lines cut -->
		</Elements>
		<NodeSet name="right_edge">
			<node id="21" />
			<node id="42" />
			<node id="63" />
			<node id="84" />
			<node id="105" />
			<node id="126" />
			<node id="147" />
			<node id="168" />
			<node id="189" />
			<node id="210" />
			<node id="231" />
		</NodeSet>
		<NodeSet name="left_edge">
			<node id="1" />
			<node id="22" />
			<node id="43" />
			<node id="64" />
			<node id="85" />
			<node id="106" />
			<node id="127" />
			<node id="148" />
			<node id="169" />
			<node id="190" />
			<node id="211" />
		</NodeSet>
		<NodeSet name="all_nodes">
			<node id="1" />
			<node id="2" />
			<node id="3" />
			<node id="4" />
			<node id="5" />
			<node id="6" />
			<node id="7" />
			<node id="8" />
			<node id="9" />
			<node id="10" />
			<node id="11" />
			<node id="12" />
			<node id="13" />
			<node id="14" />
			<node id="15" />
			<node id="16" />
			<node id="17" />
			<node id="18" />
			<node id="19" />
			<node id="20" />
<!-- ... 211 like lines cut -->
		</NodeSet>
	</Mesh>
	<MeshDomains>
		<ShellDomain name="plane_elements" mat="plane material">
			<shell_normal_nodal>1.0</shell_normal_nodal>
		</ShellDomain>
	</MeshDomains>
	<MeshData>
		<NodeData node_set="right_edge" name="nodal_load_right_edge_scale">
			<node lid="1">8.208501</node>
			<node lid="2">20.18965</node>
			<node lid="3">40.656967</node>
			<node lid="4">67.03201</node>
			<node lid="5">90.48375</node>
			<node lid="6">100.0</node>
			<node lid="7">90.48374</node>
			<node lid="8">67.03201</node>
			<node lid="9">40.656967</node>
			<node lid="10">20.189657</node>
			<node lid="11">8.208501</node>
		</NodeData>
		<ElementData elem_set="plane_elements" name="Element thickness" var="shell thickness">
			<elem lid="1">0.01,0.01,0.01</elem>
			<elem lid="2">0.01,0.01,0.01</elem>
			<elem lid="3">0.01,0.01,0.01</elem>
			<elem lid="4">0.01,0.01,0.01</elem>
			<elem lid="5">0.01,0.01,0.01</elem>
			<elem lid="6">0.01,0.01,0.01</elem>
			<elem lid="7">0.01,0.01,0.01</elem>
			<elem lid="8">0.01,0.01,0.01</elem>
			<elem lid="9">0.01,0.01,0.01</elem>
			<elem lid="10">0.01,0.01,0.01</elem>
			<elem lid="11">0.01,0.01,0.01</elem>
			<elem lid="12">0.01,0.01,0.01</elem>
			<elem lid="13">0.01,0.01,0.01</elem>
			<elem lid="14">0.01,0.01,0.01</elem>
			<elem lid="15">0.01,0.01,0.01</elem>
			<elem lid="16">0.01,0.01,0.01</elem>
			<elem lid="17">0.01,0.01,0.01</elem>
			<elem lid="18">0.01,0.01,0.01</elem>
			<elem lid="19">0.01,0.01,0.01</elem>
			<elem lid="20">0.01,0.01,0.01</elem>
<!-- ... 380 like lines cut -->
		</ElementData>
	</MeshData>
	<Boundary>
		<bc type="fix" node_set="left_edge" name="FixCondition_0_left_edge">
			<dofs>x,y,z,sx,sy</dofs>
		</bc>
		<bc type="fix" node_set="all_nodes" name="FixCondition_1_all_nodes">
			<dofs>z</dofs>
		</bc>
	</Boundary>
	<Loads>
		<nodal_load node_set="right_edge" type="nodal_load">
			<dof>y</dof>
			<scale lc="1">-25.0</scale>
		</nodal_load>
		<nodal_load node_set="right_edge" type="nodal_load">
			<dof>x</dof>
			<scale lc="1">1*nodal_load_right_edge_scale</scale>
		</nodal_load>
	</Loads>
	<Discrete />
	<Output>
		<plotfile type="febio">
			<var type="displacement" />
			<var type="Lagrange strain" />
			<var type="stress" />
		</plotfile>
	</Output>
	<LoadData>
		<load_controller id="1" type="loadcurve">
			<interpolate>SMOOTH</interpolate>
			<points>
				<point>0,0</point>
				<point>1,1</point>
			</points>
		</load_controller>
	</LoadData>
</febio_spec>