<?xml version='1.0' encoding='ISO-8859-1'?>
<febio_spec version="4.0">
	<Module type="solid" />
	<Control>
		<analysis>STATIC</analysis>
		<time_steps>10</time_steps>
		<step_size>0.1</step_size>
		<plot_zero_state>1</plot_zero_state>
		<plot_range>0,1</plot_range>
		<plot_level>PLOT_MAJOR_ITRS</plot_level>
		<output_level>OUTPUT_MAJOR_ITRS</output_level>
		<plot_stride>1</plot_stride>
		<output_stride>1</output_stride>
		<adaptor_re_solve>1</adaptor_re_solve>
		<solver type="solid">
			<symmetric_stiffness>symmetric</symmetric_stiffness>
			<equation_scheme>staggered</equation_scheme>
			<equation_order>default</equation_order>
			<optimize_bw>0</optimize_bw>
			<lstol>0.75</lstol>
			<lsmin>0.01</lsmin>
			<lsiter>5</lsiter>
			<max_refs>15</max_refs>
			<check_zero_diagonal>0</check_zero_diagonal>
			<zero_diagonal_tol>0</zero_diagonal_tol>
			<force_partition>0</force_partition>
			<reform_each_time_step>1</reform_each_time_step>
			<reform_augment>0</reform_augment>
			<diverge_reform>1</diverge_reform>
			<min_residual>1e-20</min_residual>
			<max_residual>0</max_residual>
			<dtol>0.001</dtol>
			<etol>0.01</etol>
			<rtol>0</rtol>
			<rhoi>0</rhoi>
			<alpha>1</alpha>
			<beta>0.25</beta>
			<gamma>0.5</gamma>
			<logSolve>0</logSolve>
			<arc_length>0</arc_length>
			<arc_length_scale>0</arc_length_scale>
			<qn_method type="BFGS">
				<max_ups>10</max_ups>
				<max_buffer_size>0</max_buffer_size>
				<cycle_buffer>1</cycle_buffer>
				<cmax>100000</cmax>
			</qn_method>
		</solver>
		<time_stepper type="default">
			<max_retries>5</max_retries>
			<opt_iter>10</opt_iter>
			<dtmin>0.01</dtmin>
			<dtmax>0.1</dtmax>
			<aggressiveness>0</aggressiveness>
			<cutback>0.5</cutback>
			<dtforce>0</dtforce>
		</time_stepper>
	</Control>
	<Material>
		<material id="1" type="isotropic elastic" name="plane material">
			<E>1000000.0</E>
			<v>0.3</v>
			<density>1</density>
		</material>
	</Material>
	<Globals>
		<Constants>
			<T>0</T>
			<P>0</P>
			<R>0</R>
			<Fc>0</Fc>
		</Constants>
	</Globals>
	<Mesh>
		<Nodes name="plane">
			<node id="1">-1.0,-0.5,0.0</node>
			<node id="2">-0.9,-0.5,0.0</node>
			<node id="3">-0.8,-0.5,0.0</node>
			<node id="4">-0.7,-0.5,0.0</node>
			<node id="5">-0.6,-0.5,0.0</node>
			<node id="6">-0.5,-0.5,0.0</node>
			<node id="7">-0.4,-0.5,0.0</node>
			<node id="8">-0.3,-0.5,0.0</node>
			<node id="9">-0.2,-0.5,0.0</node>
			<node id="10">-0.1,-0.5,0.0</node>
			<node id="11">0.0,-0.5,0.0</node>
			<node id="12">0.1,-0.5,0.0</node>
			<node id="13">0.2,-0.5,0.0</node>
			<node id="14">0.3,-0.5,0.0</node>
			<node id="15">0.4,-0.5,0.0</node>
			<node id="16">0.5,-0.5,0.0</node>
			<node id="17">0.6,-0.5,0.0</node>
			<node id="18">0.7,-0.5,0.0</node>
			<node id="19">0.8,-0.5,0.0</node>
			<node id="20">0.9,-0.5,0.0</node>
<!-- ... 211 like lines cut -->
		</Nodes>
		<Elements type="tri3" name="plane_elements" part="Part1" mat="1">
			<elem id="1">1,2,22</elem>
			<elem id="2">23,22,2</elem>
			<elem id="3">2,3,23</elem>
			<elem id="4">24,23,3</elem>
			<elem id="5">3,4,24</elem>
			<elem id="6">25,24,4</elem>
			<elem id="7">4,5,25</elem>
			<elem id="8">26,25,5</elem>
			<elem id="9">5,6,26</elem>
			<elem id="10">27,26,6</elem>
			<elem id="11">6,7,27</elem>
			<elem id="12">28,27,7</elem>
			<elem id="13">7,8,28</elem>
			<elem id="14">29,28,8</elem>
			<elem id="15">8,9,29</elem>
			<elem id="16">30,29,9</elem>
			<elem id="17">9,10,30</elem>
			<elem id="18">31,30,10</elem>
			<elem id="19">10,11,31</elem>
			<elem id="20">32,31,11</elem>
<!-- ... 380 like lines cut -->
		</Elements>
		<NodeSet name="right_edge">21,42,63,84,105,126,147,168,189,210,231</NodeSet>
		<NodeSet name="left_edge">1,22,43,64,85,106,127,148,169,190,211</NodeSet>
		<NodeSet name="all_nodes">1,2,3,4,5,6,7,8,9,10,11,12,13,14,15,16,17,18,19,20,21,22,23,24,25,26,27,28,29,30,31,32,33,34,35,36,37,38,39,40,41,42,43,44,45,46,47,48,49,50,51,52,53,54,55,56,57,58,59,60,61,62,63,64,65,66,67,68,69,70,71,72,73,74,75,76,77,78,79,80,81,82,83,84,85,86,87,88,89,90,91,92,93,94,95,96,97,98,99,100,101,102,103,104,105,106,107,108,109,110,111,112,113,114,115,116,117,118,119,120,
	</Mesh>
	<MeshDomains>
		<ShellDomain name="plane_elements" mat="plane material" type="elastic-shell">
			<shell_thickness>0.01</shell_thickness>
			<shell_normal_nodal>1</shell_normal_nodal>
		</ShellDomain>
	</MeshDomains>
	<MeshData>
		<NodeData node_set="right_edge" name="nodal_load_right_edge_scale">
			<node lid="1">8.208501</node>
			<node lid="2">20.18965</node>
			<node lid="3">40.656967</node>
			<node lid="4">67.03201</node>
			<node lid="5">90.48375</node>
			<node lid="6">100.0</node>
			<node lid="7">90.48374</node>
			<node lid="8">67.03201</node>
			<node lid="9">40.656967</node>
			<node lid="10">20.189657</node>
			<node lid="11">8.208501</node>
		</NodeData>
		<ElementData elem_set="plane_elements" name="Element thickness">
			<e lid="1">0.01,0.01,0.01</e>
			<e lid="2">0.01,0.01,0.01</e>
			<e lid="3">0.01,0.01,0.01</e>
			<e lid="4">0.01,0.01,0.01</e>
			<e lid="5">0.01,0.01,0.01</e>
			<e lid="6">0.01,0.01,0.01</e>
			<e lid="7">0.01,0.01,0.01</e>
			<e lid="8">0.01,0.01,0.01</e>
			<e lid="9">0.01,0.01,0.01</e>
			<e lid="10">0.01,0.01,0.01</e>
			<e lid="11">0.01,0.01,0.01</e>
			<e lid="12">0.01,0.01,0.01</e>
			<e lid="13">0.01,0.01,0.01</e>
			<e lid="14">0.01,0.01,0.01</e>
			<e lid="15">0.01,0.01,0.01</e>
			<e lid="16">0.01,0.01,0.01</e>
			<e lid="17">0.01,0.01,0.01</e>
			<e lid="18">0.01,0.01,0.01</e>
			<e lid="19">0.01,0.01,0.01</e>
			<e lid="20">0.01,0.01,0.01</e>
<!-- ... 380 like lines cut -->
		</ElementData>
	</MeshData>
	<Boundary>
		<bc type="zero displacement" node_set="left_edge" name="FixCondition_0_left_edge">
			<x_dof>1</x_dof>
			<y_dof>1</y_dof>
			<z_dof>1</z_dof>
		</bc>
		<bc type="zero shell displacement" node_set="left_edge" name="ZeroShellDisplacementCondition_1_left_edge">
			<sx_dof>1</sx_dof>
			<sy_dof>1</sy_dof>
			<sz_dof>1</sz_dof>
		</bc>
		<bc type="zero displacement" node_set="all_nodes" name="FixCondition_2_all_nodes">
			<x_dof>0</x_dof>
			<y_dof>0</y_dof>
			<z_dof>1</z_dof>
		</bc>
	</Boundary>
	<Loads>
		<nodal_load node_set="right_edge" type="nodal_load">
			<dof>y</dof>
			<scale lc="1">-25.0</scale>
		</nodal_load>
		<nodal_load node_set="right_edge" type="nodal_load">
			<dof>x</dof>
			<scale lc="1">1*nodal_load_right_edge_scale</scale>
		</nodal_load>
	</Loads>
	<Discrete />
	<Output>
		<plotfile type="febio">
			<var type="displacement" />
			<var type="Lagrange strain" />
			<var type="stress" />
		</plotfile>
	</Output>
	<LoadData>
		<load_controller id="1" type="loadcurve">
			<interpolate>SMOOTH</interpolate>
			<extend>CONSTANT</extend>
			<points>
				<pt>0,0</pt>
				<pt>1,1</pt>
			</points>
		</load_controller>
	</LoadData>
</febio_spec>