<?xml version='1.0' encoding='ISO-8859-1'?>
<febio_spec version="2.5">
	<Module type="solid" />
	<Control>
		<time_steps>10</time_steps>
		<step_size>0.1</step_size>
		<max_refs>15</max_refs>
		<max_ups>10</max_ups>
		<diverge_reform>1</diverge_reform>
		<reform_each_time_step>1</reform_each_time_step>
		<dtol>0.001</dtol>
		<etol>0.01</etol>
		<rtol>0</rtol>
		<lstol>0.75</lstol>
		<min_residual>1e-20</min_residual>
		<qnmethod>0</qnmethod>
		<rhoi>0</rhoi>
		<time_stepper>
			<dtmin>0.01</dtmin>
			<dtmax>0.1</dtmax>
			<max_retries>5</max_retries>
			<opt_iter>10</opt_iter>
		</time_stepper>
		<analysis type="static" />
	</Control>
	<Material>
		<material id="1" type="muscle material" name="FirstBlockMaterial">
			<g1>500</g1>
			<g2>500</g2>
			<p1>0.05</p1>
			<p2>6.6</p2>
			<smax>300000.0</smax>
			<Lofl>1.07</Lofl>
			<k>1000000.0</k>
		</material>
	</Material>
	<Globals>
		<Constants>
			<T>0</T>
			<R>0</R>
			<Fc>0</Fc>
		</Constants>
	</Globals>
	<Geometry>
		<Nodes name="FirstBlockNodes">
			<node id="1">-0.19000001,-0.19,-0.5656854</node>
			<node id="2">-0.1609414,-0.19312967,-0.59990317</node>
			<node id="3">-0.16357455,-0.16357455,-0.63468266</node>
			<node id="4">-0.19312969,-0.1609414,-0.59990317</node>
			<node id="5">-0.17333335,-0.17333333,-0.5421152</node>
			<node id="6">-0.14682373,-0.17618848,-0.5749072</node>
			<node id="7">-0.1492259,-0.1492259,-0.60823756</node>
			<node id="8">-0.17618848,-0.14682373,-0.5749072</node>
			<node id="9">-0.13047513,-0.19571272,-0.6283171</node>
			<node id="10">-0.13259818,-0.16574772,-0.66356015</node>
			<node id="11">-0.11902996,-0.17854492,-0.6021372</node>
			<node id="12">-0.12096675,-0.15120845,-0.6359118</node>
			<node id="13">-0.09886786,-0.19773573,-0.6506787</node>
			<node id="14">-0.10046982,-0.16744968,-0.68628484</node>
			<node id="15">-0.090195246,-0.18039048,-0.62356704</node>
			<node id="16">-0.09165668,-0.15276112,-0.65768963</node>
			<node id="17">-0.066396095,-0.19918826,-0.66679233</node>
			<node id="18">-0.06746869,-0.16867171,-0.70265925</node>
			<node id="19">-0.060571875,-0.18171561,-0.63900936</node>
			<node id="20">-0.061550383,-0.15387595,-0.67338175</node>
<!-- ... 1808 like lines cut -->
		</Nodes>
		<Elements type="hex8" mat="1" name="FirstBlockElements">
			<elem id="1">1,2,3,4,5,6,7,8</elem>
			<elem id="2">2,9,10,3,6,11,12,7</elem>
			<elem id="3">9,13,14,10,11,15,16,12</elem>
			<elem id="4">13,17,18,14,15,19,20,16</elem>
			<elem id="5">17,21,22,18,19,23,24,20</elem>
			<elem id="6">21,25,26,22,23,27,28,24</elem>
			<elem id="7">4,3,29,30,8,7,31,32</elem>
			<elem id="8">3,10,33,29,7,12,34,31</elem>
			<elem id="9">10,14,35,33,12,16,36,34</elem>
			<elem id="10">14,18,37,35,16,20,38,36</elem>
			<elem id="11">18,22,39,37,20,24,40,38</elem>
			<elem id="12">22,26,41,39,24,28,42,40</elem>
			<elem id="13">30,29,43,44,32,31,45,46</elem>
			<elem id="14">29,33,47,43,31,34,48,45</elem>
			<elem id="15">33,35,49,47,34,36,50,48</elem>
			<elem id="16">35,37,51,49,36,38,52,50</elem>
			<elem id="17">37,39,53,51,38,40,54,52</elem>
			<elem id="18">39,41,55,53,40,42,56,54</elem>
			<elem id="19">44,43,57,58,46,45,59,60</elem>
			<elem id="20">43,47,61,57,45,48,62,59</elem>
<!-- ... 1276 like lines cut -->
		</Elements>
		<NodeSet name="BoundaryNodes">
			<node id="677" />
			<node id="678" />
			<node id="681" />
			<node id="682" />
			<node id="685" />
			<node id="687" />
			<node id="689" />
			<node id="691" />
			<node id="693" />
			<node id="695" />
			<node id="697" />
			<node id="699" />
			<node id="701" />
			<node id="703" />
			<node id="761" />
			<node id="762" />
			<node id="765" />
			<node id="767" />
			<node id="769" />
			<node id="771" />
<!-- ... 172 like lines cut -->
		</NodeSet>
		<Surface name="LoadSurface">
			<quad4 id="1">148,149,150,151</quad4>
			<quad4 id="2">148,839,838,149</quad4>
			<quad4 id="3">148,151,1828,839</quad4>
			<quad4 id="4">149,152,153,150</quad4>
			<quad4 id="5">149,838,840,152</quad4>
			<quad4 id="6">150,162,163,151</quad4>
			<quad4 id="7">150,153,164,162</quad4>
			<quad4 id="8">151,163,1827,1828</quad4>
			<quad4 id="9">152,154,155,153</quad4>
			<quad4 id="10">152,840,841,154</quad4>
			<quad4 id="11">153,155,165,164</quad4>
			<quad4 id="12">154,156,157,155</quad4>
			<quad4 id="13">154,841,842,156</quad4>
			<quad4 id="14">155,157,166,165</quad4>
			<quad4 id="15">156,158,159,157</quad4>
			<quad4 id="16">156,842,843,158</quad4>
			<quad4 id="17">157,159,167,166</quad4>
			<quad4 id="18">158,160,161,159</quad4>
			<quad4 id="19">158,843,844,160</quad4>
			<quad4 id="20">159,161,168,167</quad4>
<!-- ... 412 like lines cut -->
		</Surface>
	</Geometry>
	<Boundary>
		<fix node_set="BoundaryNodes" name="Fixed" bc="x,y,z" />
	</Boundary>
	<Loads>
		<surface_load type="pressure" surface="LoadSurface" name="SurfaceLoad">
			<pressure lc="1">-25</pressure>
			<linear>1</linear>
			<symmetric_stiffness>1</symmetric_stiffness>
		</surface_load>
	</Loads>
	<Discrete />
	<LoadData>
		<loadcurve id="1" type="linear">
			<point>0,0</point>
			<point>1,1</point>
		</loadcurve>
	</LoadData>
	<Output>
		<plotfile type="febio">
			<var type="displacement" />
			<var type="Lagrange strain" />
			<var type="stress" />
			<var type="fiber vector" />
		</plotfile>
	</Output>
	<MeshData>
		<ElementData elem_set="FirstBlockElements" name="Fibers" var="fiber">
			<elem lid="1">0.9659258220140288,-0.2588190610571852,0.0</elem>
			<elem lid="2">0.9868855774446568,-0.16142136485523312,0.0</elem>
			<elem lid="3">0.999070026158545,-0.043117082827624054,0.0</elem>
			<elem lid="4">0.9953019707907781,0.09681935209447101,0.0</elem>
			<elem lid="5">0.9670686871128471,0.25451552881078654,0.0</elem>
			<elem lid="6">0.9077367002386365,0.4195403234968862,0.0</elem>
			<elem lid="7">0.9353786566455005,-0.35364780317719924,0.0</elem>
			<elem lid="8">0.9659258229066974,-0.2588190577257004,0.0</elem>
			<elem lid="9">0.990569376843448,-0.13701207851858516,0.0</elem>
			<elem lid="10">0.9998638740844534,0.01649949395673639,0.0</elem>
			<elem lid="11">0.9796977249130648,0.20048034267769171,0.0</elem>
			<elem lid="12">0.9159443370680632,0.40130533436891447,0.0</elem>
			<elem lid="13">0.8867785478704195,-0.46219455539505233,0.0</elem>
			<elem lid="14">0.9263642693343341,-0.3766287834203135,0.0</elem>
			<elem lid="15">0.9659258188538979,-0.2588190728509524,0.0</elem>
			<elem lid="16">0.9953329506004892,-0.09650034947565894,0.0</elem>
			<elem lid="17">0.9929625993258363,0.11842835952624986,0.0</elem>
			<elem lid="18">0.928032098455954,0.37250023387299813,0.0</elem>
			<elem lid="19">0.813547086103123,-0.5814990444472954,0.0</elem>
			<elem lid="20">0.8576577453836853,-0.5142209561884592,0.0</elem>
<!-- ... 1276 like lines cut -->
		</ElementData>
	</MeshData>
</febio_spec>