<?xml version='1.0' encoding='ISO-8859-1'?>
<febio_spec version="4.0">
	<Module type="solid" />
	<Control>
		<analysis>STATIC</analysis>
		<time_steps>10</time_steps>
		<step_size>0.1</step_size>
		<plot_zero_state>1</plot_zero_state>
		<plot_range>0,1</plot_range>
		<plot_level>PLOT_MAJOR_ITRS</plot_level>
		<output_level>OUTPUT_MAJOR_ITRS</output_level>
		<plot_stride>1</plot_stride>
		<output_stride>1</output_stride>
		<adaptor_re_solve>1</adaptor_re_solve>
		<solver type="solid">
			<symmetric_stiffness>symmetric</symmetric_stiffness>
			<equation_scheme>staggered</equation_scheme>
			<equation_order>default</equation_order>
			<optimize_bw>0</optimize_bw>
			<lstol>0.75</lstol>
			<lsmin>0.01</lsmin>
			<lsiter>5</lsiter>
			<max_refs>15</max_refs>
			<check_zero_diagonal>0</check_zero_diagonal>
			<zero_diagonal_tol>0</zero_diagonal_tol>
			<force_partition>0</force_partition>
			<reform_each_time_step>1</reform_each_time_step>
			<reform_augment>0</reform_augment>
			<diverge_reform>1</diverge_reform>
			<min_residual>1e-20</min_residual>
			<max_residual>0</max_residual>
			<dtol>0.001</dtol>
			<etol>0.01</etol>
			<rtol>0</rtol>
			<rhoi>0</rhoi>
			<alpha>1</alpha>
			<beta>0.25</beta>
			<gamma>0.5</gamma>
			<logSolve>0</logSolve>
			<arc_length>0</arc_length>
			<arc_length_scale>0</arc_length_scale>
			<qn_method type="BFGS">
				<max_ups>10</max_ups>
				<max_buffer_size>0</max_buffer_size>
				<cycle_buffer>1</cycle_buffer>
				<cmax>100000</cmax>
			</qn_method>
		</solver>
		<time_stepper type="default">
			<max_retries>5</max_retries>
			<opt_iter>10</opt_iter>
			<dtmin>0.01</dtmin>
			<dtmax>0.1</dtmax>
			<aggressiveness>0</aggressiveness>
			<cutback>0.5</cutback>
			<dtforce>0</dtforce>
		</time_stepper>
		<analysis_type>dynamic</analysis_type>
	</Control>
	<Material>
		<material id="1" type="isotropic elastic" name="FirstBlockMaterial">
			<E>2000.0</E>
			<v>0.3</v>
			<density>1</density>
		</material>
		<material id="2" type="isotropic elastic" name="SecondBlockMaterial">
			<E>1000.0</E>
			<v>0.25</v>
			<density>1</density>
		</material>
	</Material>
	<Globals>
		<Constants>
			<T>0</T>
			<P>0</P>
			<R>0</R>
			<Fc>0</Fc>
		</Constants>
	</Globals>
	<Mesh>
		<Nodes name="FirstBlockNodes">
			<node id="1">0.5,-0.5,0.0</node>
			<node id="2">0.5,-0.5,0.1</node>
			<node id="3">0.5,-0.5,0.2</node>
			<node id="4">0.5,-0.5,0.3</node>
			<node id="5">0.5,-0.5,0.4</node>
			<node id="6">0.5,-0.5,0.5</node>
			<node id="7">0.5,-0.5,0.6</node>
			<node id="8">0.5,-0.5,0.7</node>
			<node id="9">0.5,-0.5,0.8</node>
			<node id="10">0.5,-0.5,0.9</node>
			<node id="11">0.5,-0.5,1.0</node>
			<node id="12">0.5,-0.4,0.0</node>
			<node id="13">0.5,-0.4,0.1</node>
			<node id="14">0.5,-0.4,0.2</node>
			<node id="15">0.5,-0.4,0.3</node>
			<node id="16">0.5,-0.4,0.4</node>
			<node id="17">0.5,-0.4,0.5</node>
			<node id="18">0.5,-0.4,0.6</node>
			<node id="19">0.5,-0.4,0.7</node>
			<node id="20">0.5,-0.4,0.8</node>
<!-- ... 1311 like lines cut -->
		</Nodes>
		<Nodes name="SecondBlockNodes">
			<node id="1332">-2.5,-0.5,0.0</node>
			<node id="1333">-2.5,-0.5,0.1</node>
			<node id="1334">-2.5,-0.5,0.2</node>
			<node id="1335">-2.5,-0.5,0.3</node>
			<node id="1336">-2.5,-0.5,0.4</node>
			<node id="1337">-2.5,-0.5,0.5</node>
			<node id="1338">-2.5,-0.5,0.6</node>
			<node id="1339">-2.5,-0.5,0.7</node>
			<node id="1340">-2.5,-0.5,0.8</node>
			<node id="1341">-2.5,-0.5,0.9</node>
			<node id="1342">-2.5,-0.5,1.0</node>
			<node id="1343">-2.5,-0.4,0.0</node>
			<node id="1344">-2.5,-0.4,0.1</node>
			<node id="1345">-2.5,-0.4,0.2</node>
			<node id="1346">-2.5,-0.4,0.3</node>
			<node id="1347">-2.5,-0.4,0.4</node>
			<node id="1348">-2.5,-0.4,0.5</node>
			<node id="1349">-2.5,-0.4,0.6</node>
			<node id="1350">-2.5,-0.4,0.7</node>
			<node id="1351">-2.5,-0.4,0.8</node>
<!-- ... 1311 like lines cut -->
		</Nodes>
		<Elements type="hex8" name="FirstBlockElements"