<?xml version='1.0' encoding='ISO-8859-1'?>
<febio_spec version="4.0">
	<Module type="solid" />
	<Control>
		<analysis>dynamic</analysis>
		<time_steps>10</time_steps>
		<step_size>0.1</step_size>
		<plot_zero_state>1</plot_zero_state>
		<plot_range>0,1</plot_range>
		<plot_level>PLOT_MAJOR_ITRS</plot_level>
		<output_level>OUTPUT_MAJOR_ITRS</output_level>
		<plot_stride>1</plot_stride>
		<output_stride>1</output_stride>
		<adaptor_re_solve>1</adaptor_re_solve>
		<solver type="solid">
			<symmetric_stiffness>symmetric</symmetric_stiffness>
			<equation_scheme>staggered</equation_scheme>
			<equation_order>default</equation_order>
			<optimize_bw>0</optimize_bw>
			<lstol>0.75</lstol>
			<lsmin>0.01</lsmin>
			<lsiter>5</lsiter>
			<max_refs>15</max_refs>
			<check_zero_diagonal>0</check_zero_diagonal>
			<zero_diagonal_tol>0</zero_diagonal_tol>
			<force_partition>0</force_partition>
			<reform_each_time_step>1</reform_each_time_step>
			<reform_augment>0</reform_augment>
			<diverge_reform>1</diverge_reform>
			<min_residual>1e-20</min_residual>
			<max_residual>0</max_residual>
			<dtol>0.001</dtol>
			<etol>0.01</etol>
			<rtol>0</rtol>
			<rhoi>0</rhoi>
			<alpha>1</alpha>
			<beta>0.25</beta>
			<gamma>0.5</gamma>
			<logSolve>0</logSolve>
			<arc_length>0</arc_length>
			<arc_length_scale>0</arc_length_scale>
			<qn_method type="BFGS">
				<max_ups>10</max_ups>
				<max_buffer_size>0</max_buffer_size>
				<cycle_buffer>1</cycle_buffer>
				<cmax>100000</cmax>
			</qn_method>
		</solver>
		<time_stepper type="default">
			<max_retries>5</max_retries>
			<opt_iter>10</opt_iter>
			<dtmin>0.01</dtmin>
			<dtmax>0.1</dtmax>
			<aggressiveness>0</aggressiveness>
			<cutback>0.5</cutback>
			<dtforce>0</dtforce>
		</time_stepper>
	</Control>
	<Material>
		<material id="1" type="isotropic elastic" name="FirstBlockMaterial">
			<E>2000.0</E>
			<v>0.3</v>
			<density>1</density>
		</material>
		<material id="2" type="isotropic elastic" name="SecondBlockMaterial">
			<E>1000.0</E>
			<v>0.25</v>
			<density>1</density>
		</material>
	</Material>
	<Globals>
		<Constants>
			<T>0</T>
			<P>0</P>
			<R>0</R>
			<Fc>0</Fc>
		</Constants>
	</Globals>
	<Mesh>
		<Nodes name="FirstBlockNodes">
			<node id="1">0.5,-0.5,0.0</node>
			<node id="2">0.5,-0.5,0.1</node>
			<node id="3">0.5,-0.5,0.2</node>
			<node id="4">0.5,-0.5,0.3</node>
			<node id="5">0.5,-0.5,0.4</node>
			<node id="6">0.5,-0.5,0.5</node>
			<node id="7">0.5,-0.5,0.6</node>
			<node id="8">0.5,-0.5,0.7</node>
			<node id="9">0.5,-0.5,0.8</node>
			<node id="10">0.5,-0.5,0.9</node>
			<node id="11">0.5,-0.5,1.0</node>
			<node id="12">0.5,-0.4,0.0</node>
			<node id="13">0.5,-0.4,0.1</node>
			<node id="14">0.5,-0.4,0.2</node>
			<node id="15">0.5,-0.4,0.3</node>
			<node id="16">0.5,-0.4,0.4</node>
			<node id="17">0.5,-0.4,0.5</node>
			<node id="18">0.5,-0.4,0.6</node>
			<node id="19">0.5,-0.4,0.7</node>
			<node id="20">0.5,-0.4,0.8</node>
<!-- ... 1311 like lines cut -->
		</Nodes>
		<Nodes name="SecondBlockNodes">
			<node id="1332">-2.5,-0.5,0.0</node>
			<node id="1333">-2.5,-0.5,0.1</node>
			<node id="1334">-2.5,-0.5,0.2</node>
			<node id="1335">-2.5,-0.5,0.3</node>
			<node id="1336">-2.5,-0.5,0.4</node>
			<node id="1337">-2.5,-0.5,0.5</node>
			<node id="1338">-2.5,-0.5,0.6</node>
			<node id="1339">-2.5,-0.5,0.7</node>
			<node id="1340">-2.5,-0.5,0.8</node>
			<node id="1341">-2.5,-0.5,0.9</node>
			<node id="1342">-2.5,-0.5,1.0</node>
			<node id="1343">-2.5,-0.4,0.0</node>
			<node id="1344">-2.5,-0.4,0.1</node>
			<node id="1345">-2.5,-0.4,0.2</node>
			<node id="1346">-2.5,-0.4,0.3</node>
			<node id="1347">-2.5,-0.4,0.4</node>
			<node id="1348">-2.5,-0.4,0.5</node>
			<node id="1349">-2.5,-0.4,0.6</node>
			<node id="1350">-2.5,-0.4,0.7</node>
			<node id="1351">-2.5,-0.4,0.8</node>
<!-- ... 1311 like lines cut -->
		</Nodes>
		<Elements type="hex8" name="FirstBlockElements" mat="1">
			<elem id="1">1,122,133,12,2,123,134,13</elem>
			<elem id="2">2,123,134,13,3,124,135,14</elem>
			<elem id="3">3,124,135,14,4,125,136,15</elem>
			<elem id="4">4,125,136,15,5,126,137,16</elem>
			<elem id="5">5,126,137,16,6,127,138,17</elem>
			<elem id="6">6,127,138,17,7,128,139,18</elem>
			<elem id="7">7,128,139,18,8,129,140,19</elem>
			<elem id="8">8,129,140,19,9,130,141,20</elem>
			<elem id="9">9,130,141,20,10,131,142,21</elem>
			<elem id="10">10,131,142,21,11,132,143,22</elem>
			<elem id="11">12,133,144,23,13,134,145,24</elem>
			<elem id="12">13,134,145,24,14,135,146,25</elem>
			<elem id="13">14,135,146,25,15,136,147,26</elem>
			<elem id="14">15,136,147,26,16,137,148,27</elem>
			<elem id="15">16,137,148,27,17,138,149,28</elem>
			<elem id="16">17,138,149,28,18,139,150,29</elem>
			<elem id="17">18,139,150,29,19,140,151,30</elem>
			<elem id="18">19,140,151,30,20,141,152,31</elem>
			<elem id="19">20,141,152,31,21,142,153,32</elem>
			<elem id="20">21,142,153,32,22,143,154,33</elem>
<!-- ... 980 like lines cut -->
		</Elements>
		<Elements type="hex8" name="SecondBlockElements" mat="2">
			<elem id="1001">1332,1453,1464,1343,1333,1454,1465,1344</elem>
			<elem id="1002">1333,1454,1465,1344,1334,1455,1466,1345</elem>
			<elem id="1003">1334,1455,1466,1345,1335,1456,1467,1346</elem>
			<elem id="1004">1335,1456,1467,1346,1336,1457,1468,1347</elem>
			<elem id="1005">1336,1457,1468,1347,1337,1458,1469,1348</elem>
			<elem id="1006">1337,1458,1469,1348,1338,1459,1470,1349</elem>
			<elem id="1007">1338,1459,1470,1349,1339,1460,1471,1350</elem>
			<elem id="1008">1339,1460,1471,1350,1340,1461,1472,1351</elem>
			<elem id="1009">1340,1461,1472,1351,1341,1462,1473,1352</elem>
			<elem id="1010">1341,1462,1473,1352,1342,1463,1474,1353</elem>
			<elem id="1011">1343,1464,1475,1354,1344,1465,1476,1355</elem>
			<elem id="1012">1344,1465,1476,1355,1345,1466,1477,1356</elem>
			<elem id="1013">1345,1466,1477,1356,1346,1467,1478,1357</elem>
			<elem id="1014">1346,1467,1478,1357,1347,1468,1479,1358</elem>
			<elem id="1015">1347,1468,1479,1358,1348,1469,1480,1359</elem>
			<elem id="1016">1348,1469,1480,1359,1349,1470,1481,1360</elem>
			<elem id="1017">1349,1470,1481,1360,1350,1471,1482,1361</elem>
			<elem id="1018">1350,1471,1482,1361,1351,1472,1483,1362</elem>
			<elem id="1019">1351,1472,1483,1362,1352,1473,1484,1363</elem>
			<elem id="1020">1352,1473,1484,1363,1353,1474,1485,1364</elem>
<!-- ... 980 like lines cut -->
		</Elements>
		<NodeSet name="BoundaryNodes">1332,1333,1334,1335,1336,1337,1338,1339,1340,1341,1342,1343,1344,1345,1346,1347,1348,1349,1350,1351,1352,1353,1354,1355,1356,1357,1358,1359,1360,1361,1362,1363,1364,1365,1366,1367,1368,1369,1370,1371,1372,1373,1374,1375,1376,1377,1378,1379,1380,1381,1382,1383,1384,1385,1386,1387,1388,1389,1390,1391,1392,1393,1394,1395,1396,1397,1398,1399,1400,1401,1402,1403,1404,140
		<NodeSet name="FirstBlockGroundNodes">1,12,23,34,45,56,67,78,89,100,111,122,133,144,155,166,177,188,199,210,221,232,243,254,265,276,287,298,309,320,331,342,353,364,375,386,397,408,419,430,441,452,463,474,485,496,507,518,529,540,551,562,573,584,595,606,617,628,639,650,661,672,683,694,705,716,727,738,749,760,771,782,793,804,815,826,837,848,859,870,881,892,903,914,925,936,947,958,969,980,991,1002,1
		<NodeSet name="SecondBlockGroundNodes">1332,1343,1354,1365,1376,1387,1398,1409,1420,1431,1442,1453,1464,1475,1486,1497,1508,1519,1530,1541,1552,1563,1574,1585,1596,1607,1618,1629,1640,1651,1662,1673,1684,1695,1706,1717,1728,1739,1750,1761,1772,1783,1794,1805,1816,1827,1838,1849,1860,1871,1882,1893,1904,1915,1926,1937,1948,1959,1970,1981,1992,2003,2014,2025,2036,2047,2058,2069,2080,2091,2102,2113
		<Surface name="LoadSurface">
			<quad4 id="1">1211,1222,1223,1212</quad4>
			<quad4 id="2">1212,1223,1224,1213</quad4>
			<quad4 id="3">1213,1224,1225,1214</quad4>
			<quad4 id="4">1214,1225,1226,1215</quad4>
			<quad4 id="5">1215,1226,1227,1216</quad4>
			<quad4 id="6">1216,1227,1228,1217</quad4>
			<quad4 id="7">1217,1228,1229,1218</quad4>
			<quad4 id="8">1218,1229,1230,1219</quad4>
			<quad4 id="9">1219,1230,1231,1220</quad4>
			<quad4 id="10">1220,1231,1232,1221</quad4>
			<quad4 id="11">1222,1233,1234,1223</quad4>
			<quad4 id="12">1223,1234,1235,1224</quad4>
			<quad4 id="13">1224,1235,1236,1225</quad4>
			<quad4 id="14">1225,1236,1237,1226</quad4>
			<quad4 id="15">1226,1237,1238,1227</quad4>
			<quad4 id="16">1227,1238,1239,1228</quad4>
			<quad4 id="17">1228,1239,1240,1229</quad4>
			<quad4 id="18">1229,1240,1241,1230</quad4>
			<quad4 id="19">1230,1241,1242,1231</quad4>
			<quad4 id="20">1231,1242,1243,1232</quad4>
<!-- ... 80 like lines cut -->
		</Surface>
		<NodeSet name="SourceNodesForDiscreteSet">1,2,3,4,5,6,7,8,9,10,11,12,13,14,15,16,17,18,19,20,21,22,23,24,25,26,27,28,29,30,31,32,33,34,35,36,37,38,39,40,41,42,43,44,45,46,47,48,49,50,51,52,53,54,55,56,57,58,59,60,61,62,63,64,65,66,67,68,69,70,71,72,73,74,75,76,77,78,79,80,81,82,83,84,85,86,87,88,89,90,91,92,93,94,95,96,97,98,99,100,101,102,103,104,105,106,107,108,109,110,111,112,113,114,115,116,
		<NodeSet name="DestinationNodesForDiscreteSet">2542,2543,2544,2545,2546,2547,2548,2549,2550,2551,2552,2553,2554,2555,2556,2557,2558,2559,2560,2561,2562,2563,2564,2565,2566,2567,2568,2569,2570,2571,2572,2573,2574,2575,2576,2577,2578,2579,2580,2581,2582,2583,2584,2585,2586,2587,2588,2589,2590,2591,2592,2593,2594,2595,2596,2597,2598,2599,2600,2601,2602,2603,2604,2605,2606,2607,2608,2609,2610,2611,2
		<DiscreteSet name="DiscreteSet">
			<delem>1,2542</delem>
			<delem>2,2543</delem>
			<delem>3,2544</delem>
			<delem>4,2545</delem>
			<delem>5,2546</delem>
			<delem>6,2547</delem>
			<delem>7,2548</delem>
			<delem>8,2549</delem>
			<delem>9,2550</delem>
			<delem>10,2551</delem>
			<delem>11,2552</delem>
			<delem>12,2553</delem>
			<delem>13,2554</delem>
			<delem>14,2555</delem>
			<delem>15,2556</delem>
			<delem>16,2557</delem>
			<delem>17,2558</delem>
			<delem>18,2559</delem>
			<delem>19,2560</delem>
			<delem>20,2561</delem>
<!-- ... 101 like lines cut -->
		</DiscreteSet>
	</Mesh>
	<MeshDomains>
		<SolidDomain name="FirstBlockElements" mat="FirstBlockMaterial" />
		<SolidDomain name="SecondBlockElements" mat="SecondBlockMaterial" />
	</MeshDomains>
	<MeshData />
	<Boundary>
		<bc type="zero displacement" node_set="BoundaryNodes" name="Fixed">
			<x_dof>1</x_dof>
			<y_dof>1</y_dof>
			<z_dof>1</z_dof>
		</bc>
		<bc type="zero displacement" node_set="FirstBlockGroundNodes" name="FirstBlockGroundFixed">
			<x_dof>0</x_dof>
			<y_dof>0</y_dof>
			<z_dof>1</z_dof>
		</bc>
		<bc type="zero displacement" node_set="SecondBlockGroundNodes" name="SecondBlockGroundFixed">
			<x_dof>0</x_dof>
			<y_dof>0</y_dof>
			<z_dof>1</z_dof>
		</bc>
	</Boundary>
	<Loads>
		<surface_load type="pressure" surface="LoadSurface" name="SurfaceLoad">
			<pressure lc="1">-1000</pressure>
			<linear>1</linear>
			<symmetric_stiffness>1</symmetric_stiffness>
		</surface_load>
	</Loads>
	<Discrete>
		<discrete_material id="1" type="linear spring" name="DiscreteMaterial">
			<E>1000000.0</E>
		</discrete_material>
		<discrete discrete_set="DiscreteSet" dmat="1" />
	</Discrete>
	<Output>
		<plotfile type="febio">
			<var type="displacement" />
			<var type="Lagrange strain" />
			<var type="stress" />
		</plotfile>
	</Output>
	<LoadData>
		<load_controller id="1" type="loadcurve">
			<interpolate>LINEAR</interpolate>
			<extend>CONSTANT</extend>
			<points>
				<pt>0,0</pt>
				<pt>1,1</pt>
			</points>
		</load_controller>
	</LoadData>
</febio_spec>